# MODFLOW2000 Well Package
PARAMETER  0  0
       356        54
       356         0               Stress Period 1
         5       106        30-1304.0022 AF1
         6       106        30-1304.0022 AF1
         7       106        30-1304.0022 AF1
         5       106        30-1304.0022 AF2
         6       106        30-1304.0022 AF2
         7       106        30-1304.0022 AF2
         5       106        30-1304.0022 AF3
         6       106        30-1304.0022 AF3
         7       106        30-1304.0022 AF3
         5       123        12-421.83317 EG1
         6       123        12-421.83317 EG1
         7       123        12-421.83317 EG1
         5       105        30 0.000e+00 ET1
         6       105        30 0.000e+00 ET1
         7       105        30 0.000e+00 ET1
         5       115        17-658.20734 FC1
         6       115        17-658.20734 FC1
         7       115        17-658.20734 FC1
         5       115        16-658.20734 FC2
         6       115        16-658.20734 FC2
         7       115        16-658.20734 FC2
         5       115        16-658.20734 FC3
         6       115        16-658.20734 FC3
         7       115        16-658.20734 FC3
         5       115        17-658.20734 FC4
         6       115        17-658.20734 FC4
         7       115        17-658.20734 FC4
         5       115        17-658.20734 FC5
         6       115        17-658.20734 FC5
         7       115        17-658.20734 FC5
         5       118        12-2270.0223 FK1
         6       118        12-2270.0223 FK1
         7       118        12-2270.0223 FK1
         5       118        12-2270.0223 FK2
         6       118        12-2270.0223 FK2
         7       118        12-2270.0223 FK2
         5       118        12-2270.0223 FK3
         6       118        12-2270.0223 FK3
         7       118        12-2270.0223 FK3
         5       118        12-2270.0223 FK4
         6       118        12-2270.0223 FK4
         7       118        12-2270.0223 FK4
         5       118        12-2270.0223 FK5
         6       118        12-2270.0223 FK5
         7       118        12-2270.0223 FK5
         5       118        12-2270.0223 FK6
         6       118        12-2270.0223 FK6
         7       118        12-2270.0223 FK6
         5       118        12-2270.0223 FK7
         6       118        12-2270.0223 FK7
         7       118        12-2270.0223 FK7
         5       118        12-2270.0223 FK8
         6       118        12-2270.0223 FK8
         7       118        12-2270.0223 FK8
         5        32        56 0.000e+00 Hial_11
         6        32        56 0.000e+00 Hial_11
         7        32        56 0.000e+00 Hial_11
         5        32        56 0.000e+00 Hial_12
         6        32        56 0.000e+00 Hial_12
         7        32        56 0.000e+00 Hial_12
         5        32        56-5164.8170 Hial_13
         6        32        56-5164.8170 Hial_13
         7        32        56-5164.8170 Hial_13
         5       110        21-1817.9142 HR1
         6       110        21-1817.9142 HR1
         7       110        21-1817.9142 HR1
         5       110        20-1817.9142 HR2
         6       110        20-1817.9142 HR2
         7       110        20-1817.9142 HR2
         5       106        26 0.000e+00 LC1
         6       106        26 0.000e+00 LC1
         7       106        26 0.000e+00 LC1
         5       106        26-0.8480763 LC2
         6       106        26-0.8480763 LC2
         7       106        26-0.8480763 LC2
         5       106        26-2166.0548 LC3
         6       106        26-2166.0548 LC3
         7       106        26-2166.0548 LC3
         5       106        26-456.33292 LC4
         6       106        26-456.33292 LC4
         7       106        26-456.33292 LC4
         5       106        26-2725.7852 LC5
         6       106        26-2725.7852 LC5
         7       106        26-2725.7852 LC5
         5       106        26 0.000e+00 LC6
         6       106        26 0.000e+00 LC6
         7       106        26 0.000e+00 LC6
         6        35        56 0.000e+00 MSL_1
         7        35        56 0.000e+00 MSL_1
         8        35        56 0.000e+00 MSL_1
         9        35        56 0.000e+00 MSL_1
         6        35        55-3320.2395 MSL_2
         7        35        55-3320.2395 MSL_2
         8        35        55-3320.2395 MSL_2
         9        35        55-3320.2395 MSL_2
         6        34        55-3320.2395 MSL_3
         7        34        55-3320.2395 MSL_3
         8        34        55-3320.2395 MSL_3
         9        34        55-3320.2395 MSL_3
         6        34        56 0.000e+00 MSL_4
         7        34        56 0.000e+00 MSL_4
         8        34        56 0.000e+00 MSL_4
         9        34        56 0.000e+00 MSL_4
         6        34        55 0.000e+00 MSL_5
         7        34        55 0.000e+00 MSL_5
         8        34        55 0.000e+00 MSL_5
         9        34        55 0.000e+00 MSL_5
         6        35        54-6640.4790 MSL_6
         7        35        54-6640.4790 MSL_6
         8        35        54-6640.4790 MSL_6
         9        35        54-6640.4790 MSL_6
         6        35        54 0.000e+00 MSL_7
         7        35        54 0.000e+00 MSL_7
         8        35        54 0.000e+00 MSL_7
         9        35        54 0.000e+00 MSL_7
         6        35        55-3320.2395 MSL_8
         7        35        55-3320.2395 MSL_8
         8        35        55-3320.2395 MSL_8
         9        35        55-3320.2395 MSL_8
         9        32        53 0.000e+00 MSU_22
        10        32        53 0.000e+00 MSU_22
        11        32        53 0.000e+00 MSU_22
         9        31        53-4426.9860 MSU_23
        10        31        53-4426.9860 MSU_23
        11        31        53-4426.9860 MSU_23
         9        31        52-4426.9860 MSU_9
        10        31        52-4426.9860 MSU_9
        11        31        52-4426.9860 MSU_9
         9        32        55-5164.8170 MSU_10
        10        32        55-5164.8170 MSU_10
        11        32        55-5164.8170 MSU_10
         9        32        55 0.000e+00 MSU_14
        10        32        55 0.000e+00 MSU_14
        11        32        55 0.000e+00 MSU_14
         9        31        55 0.000e+00 MSU_15
        10        31        55 0.000e+00 MSU_15
        11        31        55 0.000e+00 MSU_15
         9        31        54 0.000e+00 MSU_16
        10        31        54 0.000e+00 MSU_16
        11        31        54 0.000e+00 MSU_16
         9        32        55 0.000e+00 MSU_17
        10        32        55 0.000e+00 MSU_17
        11        32        55 0.000e+00 MSU_17
         9        31        54-4426.9860 MSU_18
        10        31        54-4426.9860 MSU_18
        11        31        54-4426.9860 MSU_18
         9        31        53 0.000e+00 MSU_19
        10        31        53 0.000e+00 MSU_19
        11        31        53 0.000e+00 MSU_19
         9        32        54 0.000e+00 MSU_20
        10        32        54 0.000e+00 MSU_20
        11        32        54 0.000e+00 MSU_20
         9        32        54 0.000e+00 MSU_21
        10        32        54 0.000e+00 MSU_21
        11        32        54 0.000e+00 MSU_21
         9       101        28-69.610106 NJ1
        10       101        28 0.000e+00 NJ1
        11       101        28 0.000e+00 NJ1
         6         5        70-1829.8785 Nor_1
         7         5        70-1829.8785 Nor_1
         8         5        70-1829.8785 Nor_1
         6         5        70-1829.8785 Nor_2
         7         5        70-1829.8785 Nor_2
         8         5        70-1829.8785 Nor_2
         6         4        70-1829.8785 Nor_3
         7         4        70-1829.8785 Nor_3
         8         4        70-1829.8785 Nor_3
         6         5        70-1829.8785 Nor_4
         7         5        70-1829.8785 Nor_4
         8         5        70-1829.8785 Nor_4
         6         4        69-1829.8785 Nor_5
         7         4        69-1829.8785 Nor_5
         8         4        69-1829.8785 Nor_5
         6         4        69-1829.8785 Nor_6
         7         4        69-1829.8785 Nor_6
         8         4        69-1829.8785 Nor_6
         6         4        69-1829.8785 Nor_7
         7         4        69-1829.8785 Nor_7
         8         4        69-1829.8785 Nor_7
         6         4        70-1829.8785 Nor_8
         7         4        70-1829.8785 Nor_8
         8         4        70-1829.8785 Nor_8
         6         5        70-1829.8785 Nor_9
         7         5        70-1829.8785 Nor_9
         8         5        70-1829.8785 Nor_9
         6         5        70-1829.8785 Nor_10
         7         5        70-1829.8785 Nor_10
         8         5        70-1829.8785 Nor_10
         4       114        24-4083.1823 NT1
         5       114        24-4083.1823 NT1
         4        30        30-17677.201 NW_11
         5        30        30-17677.201 NW_11
         4        31        30-17677.201 NW_12
         5        31        30-17677.201 NW_12
         4        31        30-17677.201 NW_13
         5        31        30-17677.201 NW_13
         4        32        30 0.000e+00 NW_14
         5        32        30 0.000e+00 NW_14
         4        32        30 0.000e+00 NW_15
         5        32        30 0.000e+00 NW_15
         4        26        30-6917.1656 NW_1
         5        26        30-6917.1656 NW_1
         4        27        30-17677.201 NW_2
         5        27        30-17677.201 NW_2
         4        27        30-17677.201 NW_3
         5        27        30-17677.201 NW_3
         4        28        30-17677.201 NW_4
         5        28        30-17677.201 NW_4
         4        28        30-26515.802 NW_5
         5        28        30-26515.802 NW_5
         4        28        30 0.000e+00 NW_6
         5        28        30 0.000e+00 NW_6
         4        29        31-18445.775 NW_7
         5        29        31-18445.775 NW_7
         4        29        30 0.000e+00 NW_8
         5        29        30 0.000e+00 NW_8
         4        29        30-26515.802 NW_9
         5        29        30-26515.802 NW_9
         4        30        30-10760.035 NW_10
         5        30        30-10760.035 NW_10
         4        59        46 0.000e+00 OR1
         5        59        46 0.000e+00 OR1
         4        59        46-12738.374 OR2
         5        59        46-12738.374 OR2
         4        59        46-12738.374 OR3
         5        59        46-12738.374 OR3
         4        59        46-12738.374 OR4
         5        59        46-12738.374 OR4
         4        59        46-12738.374 OR5
         5        59        46-12738.374 OR5
         4        59        46-12738.374 OR6
         5        59        46-12738.374 OR6
         4        59        46-12738.374 OR7
         5        59        46-12738.374 OR7
         4        59        46-22929.073 OR8
         5        59        46-22929.073 OR8
         4        60        46-22929.073 OR9
         5        60        46-22929.073 OR9
         4        60        46-22929.073 OR10
         5        60        46-22929.073 OR10
         4        31        56-768.57396 Pres_1
         5        31        56-768.57396 Pres_1
         4        31        56 0.000e+00 Pres_2
         5        31        56 0.000e+00 Pres_2
         4        31        56-768.57396 Pres_3
         5        31        56-768.57396 Pres_3
         4        31        56-768.57396 Pres_4
         5        31        56-768.57396 Pres_4
         4        31        56-768.57396 Pres_5
         5        31        56-768.57396 Pres_5
         4        31        56-768.57396 Pres_6
         5        31        56-768.57396 Pres_6
         4        31        56-17677.201 Pres_7
         5        31        56-17677.201 Pres_7
         4       106        15-76.530409 RD1
         5       106        15-76.530409 RD1
         6       106        15-76.530409 RD1
         4        60        41 0.000e+00 SC1
         5        60        41 0.000e+00 SC1
         6        60        41 0.000e+00 SC1
         4        60        41 0.000e+00 SC2
         5        60        41 0.000e+00 SC2
         6        60        41 0.000e+00 SC2
         4        61        42 0.000e+00 SC3
         5        61        42 0.000e+00 SC3
         6        61        42 0.000e+00 SC3
         4        61        41-2948.6976 SC4
         5        61        41-2948.6976 SC4
         6        61        41-2948.6976 SC4
         4        62        34-9907.6241 SW8
         5        62        34-9907.6241 SW8
         6        62        34-9907.6241 SW8
         4        62        34-9907.6241 SW9
         5        62        34-9907.6241 SW9
         6        62        34-9907.6241 SW9
         4        62        34-9907.6241 SW10
         5        62        34-9907.6241 SW10
         6        62        34-9907.6241 SW10
         4        63        34-5307.6558 SW11
         5        63        34-5307.6558 SW11
         6        63        34-5307.6558 SW11
         4        63        34-14153.749 SW12
         5        63        34-14153.749 SW12
         6        63        34-14153.749 SW12
         4        63        34 0.000e+00 SW13
         5        63        34 0.000e+00 SW13
         6        63        34 0.000e+00 SW13
         4        63        33-14153.749 SW14
         5        63        33-14153.749 SW14
         6        63        33-14153.749 SW14
         4        61        35 0.000e+00 SW1
         5        61        35 0.000e+00 SW1
         6        61        35 0.000e+00 SW1
         4        61        35 0.000e+00 SW2
         5        61        35 0.000e+00 SW2
         6        61        35 0.000e+00 SW2
         4        61        35-9907.6241 SW3
         5        61        35-9907.6241 SW3
         6        61        35-9907.6241 SW3
         4        62        35-9907.6241 SW4
         5        62        35-9907.6241 SW4
         6        62        35-9907.6241 SW4
         4        62        35-9907.6241 SW5
         5        62        35-9907.6241 SW5
         6        62        35-9907.6241 SW5
         4        62        35-9907.6241 SW6
         5        62        35-9907.6241 SW6
         6        62        35-9907.6241 SW6
         4        62        34-9907.6241 SW7
         5        62        34-9907.6241 SW7
         6        62        34-9907.6241 SW7
         4       109        17-1433.9886 WP1
         5       109        17-1433.9886 WP1
         6       109        17-1433.9886 WP1
         4       109        17-1433.9886 WP2
         5       109        17-1433.9886 WP2
         6       109        17-1433.9886 WP2
         4       109        17-1433.9886 WP3
         5       109        17-1433.9886 WP3
         6       109        17-1433.9886 WP3
         4       109        17-1433.9886 WP4
         5       109        17-1433.9886 WP4
         6       109        17-1433.9886 WP4
         4        19        70-1088.1195 WS_1
         5        19        70-1088.1195 WS_1
         6        19        70-1088.1195 WS_1
         4        19        70-1088.1195 WS_2
         5        19        70-1088.1195 WS_2
         6        19        70-1088.1195 WS_2
         4        19        69-1088.1195 WS_3
         5        19        69-1088.1195 WS_3
         6        19        69-1088.1195 WS_3
         4        19        69-1088.1195 WS_4
         5        19        69-1088.1195 WS_4
         6        19        69-1088.1195 WS_4
         4        19        68-1088.1195 WS_5
         5        19        68-1088.1195 WS_5
         6        19        68-1088.1195 WS_5
         4        19        68-1088.1195 WS_6
         5        19        68-1088.1195 WS_6
         6        19        68-1088.1195 WS_6
         4        18        69-1088.1195 WS_7
         5        18        69-1088.1195 WS_7
         6        18        69-1088.1195 WS_7
         4        18        69-1088.1195 WS_8
         5        18        69-1088.1195 WS_8
         6        18        69-1088.1195 WS_8
         4        52        18 0.000e+00 WW1
         5        52        18 0.000e+00 WW1
         6        52        18 0.000e+00 WW1
         4        52        18 0.000e+00 WW2
         5        52        18 0.000e+00 WW2
         6        52        18 0.000e+00 WW2
         4        53        18 0.000e+00 WW3
         5        53        18 0.000e+00 WW3
         6        53        18 0.000e+00 WW3
       356         0               Stress Period 2
         5       106        30-1304.0022 AF1
         6       106        30-1304.0022 AF1
         7       106        30-1304.0022 AF1
         5       106        30-1304.0022 AF2
         6       106        30-1304.0022 AF2
         7       106        30-1304.0022 AF2
         5       106        30-1304.0022 AF3
         6       106        30-1304.0022 AF3
         7       106        30-1304.0022 AF3
         5       123        12-421.83317 EG1
         6       123        12-421.83317 EG1
         7       123        12-421.83317 EG1
         5       105        30 0.000e+00 ET1
         6       105        30 0.000e+00 ET1
         7       105        30 0.000e+00 ET1
         5       115        17-658.20734 FC1
         6       115        17-658.20734 FC1
         7       115        17-658.20734 FC1
         5       115        16-658.20734 FC2
         6       115        16-658.20734 FC2
         7       115        16-658.20734 FC2
         5       115        16-658.20734 FC3
         6       115        16-658.20734 FC3
         7       115        16-658.20734 FC3
         5       115        17-658.20734 FC4
         6       115        17-658.20734 FC4
         7       115        17-658.20734 FC4
         5       115        17-658.20734 FC5
         6       115        17-658.20734 FC5
         7       115        17-658.20734 FC5
         5       118        12-2270.0223 FK1
         6       118        12-2270.0223 FK1
         7       118        12-2270.0223 FK1
         5       118        12-2270.0223 FK2
         6       118        12-2270.0223 FK2
         7       118        12-2270.0223 FK2
         5       118        12-2270.0223 FK3
         6       118        12-2270.0223 FK3
         7       118        12-2270.0223 FK3
         5       118        12-2270.0223 FK4
         6       118        12-2270.0223 FK4
         7       118        12-2270.0223 FK4
         5       118        12-2270.0223 FK5
         6       118        12-2270.0223 FK5
         7       118        12-2270.0223 FK5
         5       118        12-2270.0223 FK6
         6       118        12-2270.0223 FK6
         7       118        12-2270.0223 FK6
         5       118        12-2270.0223 FK7
         6       118        12-2270.0223 FK7
         7       118        12-2270.0223 FK7
         5       118        12-2270.0223 FK8
         6       118        12-2270.0223 FK8
         7       118        12-2270.0223 FK8
         5        32        56 0.000e+00 Hial_11
         6        32        56 0.000e+00 Hial_11
         7        32        56 0.000e+00 Hial_11
         5        32        56 0.000e+00 Hial_12
         6        32        56 0.000e+00 Hial_12
         7        32        56 0.000e+00 Hial_12
         5        32        56-5757.1451 Hial_13
         6        32        56-5757.1451 Hial_13
         7        32        56-5757.1451 Hial_13
         5       110        21-1817.9142 HR1
         6       110        21-1817.9142 HR1
         7       110        21-1817.9142 HR1
         5       110        20-1817.9142 HR2
         6       110        20-1817.9142 HR2
         7       110        20-1817.9142 HR2
         5       106        26 0.000e+00 LC1
         6       106        26 0.000e+00 LC1
         7       106        26 0.000e+00 LC1
         5       106        26-0.8480763 LC2
         6       106        26-0.8480763 LC2
         7       106        26-0.8480763 LC2
         5       106        26-2166.0548 LC3
         6       106        26-2166.0548 LC3
         7       106        26-2166.0548 LC3
         5       106        26-456.33292 LC4
         6       106        26-456.33292 LC4
         7       106        26-456.33292 LC4
         5       106        26-2725.7852 LC5
         6       106        26-2725.7852 LC5
         7       106        26-2725.7852 LC5
         5       106        26 0.000e+00 LC6
         6       106        26 0.000e+00 LC6
         7       106        26 0.000e+00 LC6
         6        35        56 0.000e+00 MSL_1
         7        35        56 0.000e+00 MSL_1
         8        35        56 0.000e+00 MSL_1
         9        35        56 0.000e+00 MSL_1
         6        35        55-3701.0218 MSL_2
         7        35        55-3701.0218 MSL_2
         8        35        55-3701.0218 MSL_2
         9        35        55-3701.0218 MSL_2
         6        34        55-3701.0218 MSL_3
         7        34        55-3701.0218 MSL_3
         8        34        55-3701.0218 MSL_3
         9        34        55-3701.0218 MSL_3
         6        34        56 0.000e+00 MSL_4
         7        34        56 0.000e+00 MSL_4
         8        34        56 0.000e+00 MSL_4
         9        34        56 0.000e+00 MSL_4
         6        34        55 0.000e+00 MSL_5
         7        34        55 0.000e+00 MSL_5
         8        34        55 0.000e+00 MSL_5
         9        34        55 0.000e+00 MSL_5
         6        35        54-7402.0436 MSL_6
         7        35        54-7402.0436 MSL_6
         8        35        54-7402.0436 MSL_6
         9        35        54-7402.0436 MSL_6
         6        35        54 0.000e+00 MSL_7
         7        35        54 0.000e+00 MSL_7
         8        35        54 0.000e+00 MSL_7
         9        35        54 0.000e+00 MSL_7
         6        35        55-3701.0218 MSL_8
         7        35        55-3701.0218 MSL_8
         8        35        55-3701.0218 MSL_8
         9        35        55-3701.0218 MSL_8
         9        32        53-4934.6958 MSU_22
        10        32        53-4934.6958 MSU_22
        11        32        53-4934.6958 MSU_22
         9        31        53 0.000e+00 MSU_23
        10        31        53 0.000e+00 MSU_23
        11        31        53 0.000e+00 MSU_23
         9        31        52-4934.6958 MSU_9
        10        31        52-4934.6958 MSU_9
        11        31        52-4934.6958 MSU_9
         9        32        55-5757.1451 MSU_10
        10        32        55-5757.1451 MSU_10
        11        32        55-5757.1451 MSU_10
         9        32        55 0.000e+00 MSU_14
        10        32        55 0.000e+00 MSU_14
        11        32        55 0.000e+00 MSU_14
         9        31        55 0.000e+00 MSU_15
        10        31        55 0.000e+00 MSU_15
        11        31        55 0.000e+00 MSU_15
         9        31        54 0.000e+00 MSU_16
        10        31        54 0.000e+00 MSU_16
        11        31        54 0.000e+00 MSU_16
         9        32        55 0.000e+00 MSU_17
        10        32        55 0.000e+00 MSU_17
        11        32        55 0.000e+00 MSU_17
         9        31        54-4934.6958 MSU_18
        10        31        54-4934.6958 MSU_18
        11        31        54-4934.6958 MSU_18
         9        31        53 0.000e+00 MSU_19
        10        31        53 0.000e+00 MSU_19
        11        31        53 0.000e+00 MSU_19
         9        32        54 0.000e+00 MSU_20
        10        32        54 0.000e+00 MSU_20
        11        32        54 0.000e+00 MSU_20
         9        32        54 0.000e+00 MSU_21
        10        32        54 0.000e+00 MSU_21
        11        32        54 0.000e+00 MSU_21
         9       101        28-69.610106 NJ1
        10       101        28 0.000e+00 NJ1
        11       101        28 0.000e+00 NJ1
         6         5        70-1829.8785 Nor_1
         7         5        70-1829.8785 Nor_1
         8         5        70-1829.8785 Nor_1
         6         5        70-1829.8785 Nor_2
         7         5        70-1829.8785 Nor_2
         8         5        70-1829.8785 Nor_2
         6         4        70-1829.8785 Nor_3
         7         4        70-1829.8785 Nor_3
         8         4        70-1829.8785 Nor_3
         6         5        70-1829.8785 Nor_4
         7         5        70-1829.8785 Nor_4
         8         5        70-1829.8785 Nor_4
         6         4        69-1829.8785 Nor_5
         7         4        69-1829.8785 Nor_5
         8         4        69-1829.8785 Nor_5
         6         4        69-1829.8785 Nor_6
         7         4        69-1829.8785 Nor_6
         8         4        69-1829.8785 Nor_6
         6         4        69-1829.8785 Nor_7
         7         4        69-1829.8785 Nor_7
         8         4        69-1829.8785 Nor_7
         6         4        70-1829.8785 Nor_8
         7         4        70-1829.8785 Nor_8
         8         4        70-1829.8785 Nor_8
         6         5        70-1829.8785 Nor_9
         7         5        70-1829.8785 Nor_9
         8         5        70-1829.8785 Nor_9
         6         5        70-1829.8785 Nor_10
         7         5        70-1829.8785 Nor_10
         8         5        70-1829.8785 Nor_10
         4       114        24-4083.1823 NT1
         5       114        24-4083.1823 NT1
         4        30        30-9638.0776 NW_11
         5        30        30-9638.0776 NW_11
         4        31        30-20561.232 NW_12
         5        31        30-20561.232 NW_12
         4        31        30-14135.847 NW_13
         5        31        30-14135.847 NW_13
         4        32        30 0.000e+00 NW_14
         5        32        30 0.000e+00 NW_14
         4        32        30 0.000e+00 NW_15
         5        32        30 0.000e+00 NW_15
         4        26        30-30841.848 NW_1
         5        26        30-30841.848 NW_1
         4        27        30-11994.052 NW_2
         5        27        30-11994.052 NW_2
         4        27        30-8995.5391 NW_3
         5        27        30-8995.5391 NW_3
         4        28        30-20561.232 NW_4
         5        28        30-20561.232 NW_4
         4        28        30-30841.848 NW_5
         5        28        30-30841.848 NW_5
         4        28        30 0.000e+00 NW_6
         5        28        30 0.000e+00 NW_6
         4        29        31-20561.232 NW_7
         5        29        31-20561.232 NW_7
         4        29        30 0.000e+00 NW_8
         5        29        30 0.000e+00 NW_8
         4        29        30-30841.848 NW_9
         5        29        30-30841.848 NW_9
         4        30        30 0.000e+00 NW_10
         5        30        30 0.000e+00 NW_10
         4        59        46 0.000e+00 OR1
         5        59        46 0.000e+00 OR1
         4        59        46-12153.319 OR2
         5        59        46-12153.319 OR2
         4        59        46-12153.319 OR3
         5        59        46-12153.319 OR3
         4        59        46 0.000e+00 OR4
         5        59        46 0.000e+00 OR4
         4        59        46-12153.319 OR5
         5        59        46-12153.319 OR5
         4        59        46-12153.319 OR6
         5        59        46-12153.319 OR6
         4        59        46-12153.319 OR7
         5        59        46-12153.319 OR7
         4        59        46-21875.975 OR8
         5        59        46-21875.975 OR8
         4        60        46-21875.975 OR9
         5        60        46-21875.975 OR9
         4        60        46-21875.975 OR10
         5        60        46-21875.975 OR10
         4        31        56 0.000e+00 Pres_1
         5        31        56 0.000e+00 Pres_1
         4        31        56 0.000e+00 Pres_2
         5        31        56 0.000e+00 Pres_2
         4        31        56 0.000e+00 Pres_3
         5        31        56 0.000e+00 Pres_3
         4        31        56 0.000e+00 Pres_4
         5        31        56 0.000e+00 Pres_4
         4        31        56 0.000e+00 Pres_5
         5        31        56 0.000e+00 Pres_5
         4        31        56 0.000e+00 Pres_6
         5        31        56 0.000e+00 Pres_6
         4        31        56-20561.232 Pres_7
         5        31        56-20561.232 Pres_7
         4       106        15-76.530409 RD1
         5       106        15-76.530409 RD1
         6       106        15-76.530409 RD1
         4        60        41 0.000e+00 SC1
         5        60        41 0.000e+00 SC1
         6        60        41 0.000e+00 SC1
         4        60        41 0.000e+00 SC2
         5        60        41 0.000e+00 SC2
         6        60        41 0.000e+00 SC2
         4        61        42 0.000e+00 SC3
         5        61        42 0.000e+00 SC3
         6        61        42 0.000e+00 SC3
         4        61        41-13503.688 SC4
         5        61        41-13503.688 SC4
         6        61        41-13503.688 SC4
         4        62        34-9452.5818 SW8
         5        62        34-9452.5818 SW8
         6        62        34-9452.5818 SW8
         4        62        34-9452.5818 SW9
         5        62        34-9452.5818 SW9
         6        62        34-9452.5818 SW9
         4        62        34-9452.5818 SW10
         5        62        34-9452.5818 SW10
         6        62        34-9452.5818 SW10
         4        63        34-13503.688 SW11
         5        63        34-13503.688 SW11
         6        63        34-13503.688 SW11
         4        63        34-13503.688 SW12
         5        63        34-13503.688 SW12
         6        63        34-13503.688 SW12
         4        63        34 0.000e+00 SW13
         5        63        34 0.000e+00 SW13
         6        63        34 0.000e+00 SW13
         4        63        33-13503.688 SW14
         5        63        33-13503.688 SW14
         6        63        33-13503.688 SW14