# MODFLOW2000 Discretization File
 20  173  93  100  4  2
 0 0 0 0 0 0 0 0 0 0 0 0 0 0 0 0 0 0 0 0
         0   500.000(10E12.4)                    0     DELTA-X or C
         0   500.000(10E12.4)                    0     DELTA-Y or R
        29     1.000(10e12.4)                   -1     TOP of Model
  2.0800e+00  2.0700e+00  2.0630e+00  2.0550e+00  2.0480e+00  2.0410e+00  2.0330e+00  2.0260e+00  2.0190e+00  2.0120e+00
  2.0050e+00  1.9980e+00  1.9910e+00  1.9840e+00  1.9680e+00  1.9480e+00  1.9280e+00  1.9080e+00  1.8850e+00  1.8600e+00
  1.8370e+00  1.7980e+00  1.7640e+00  1.7290e+00  1.7030e+00  1.6870e+00  1.6770e+00  1.6610e+00  1.6450e+00  1.6220e+00
  1.5960e+00  1.5680e+00  1.5390e+00  1.5110e+00  1.4860e+00  1.4950e+00  1.5030e+00  1.5120e+00  1.5210e+00  1.5240e+00
  1.5240e+00  1.5240e+00  1.5240e+00  1.5240e+00  1.5240e+00  1.5240e+00  1.5240e+00  1.5240e+00  1.5240e+00  1.5240e+00
  1.5240e+00  1.5240e+00  1.5240e+00  1.5240e+00  1.5240e+00  1.5240e+00  1.5240e+00  1.5240e+00  1.5240e+00  1.5240e+00
  1.5240e+00  1.5240e+00  1.5240e+00  1.5240e+00  1.5240e+00  1.5240e+00  1.5240e+00  1.5240e+00  1.5240e+00  1.5240e+00
  1.5240e+00  1.5240e+00  1.5240e+00  1.5810e+00  1.8350e+00  2.0740e+00  2.2020e+00  2.2930e+00  2.2230e+00  2.1580e+00
  1.9270e+00  1.5240e+00  1.5240e+00  1.5240e+00  1.5240e+00  1.5240e+00  0.0000e+00  0.0000e+00  7.7600e-01 -1.8240e+00
 -5.6850e+00 -9.9120e+00 -1.5070e+01
  2.0770e+00  2.0670e+00  2.0570e+00  2.0490e+00  2.0420e+00  2.0340e+00  2.0270e+00  2.0200e+00  2.0130e+00  2.0050e+00
  1.9980e+00  1.9910e+00  1.9840e+00  1.9740e+00  1.9610e+00  1.9420e+00  1.9200e+00  1.8960e+00  1.8730e+00  1.8530e+00
  1.8290e+00  1.7700e+00  1.7270e+00  1.6950e+00  1.6640e+00  1.6520e+00  1.6440e+00  1.6280e+00  1.6110e+00  1.5950e+00
  1.5750e+00  1.5490e+00  1.5230e+00  1.4990e+00  1.4700e+00  1.4630e+00  1.4720e+00  1.4800e+00  1.4890e+00  1.4980e+00
  1.5060e+00  1.5150e+00  1.5230e+00  1.5240e+00  1.5240e+00  1.5240e+00  1.5240e+00  1.5240e+00  1.5240e+00  1.5240e+00
  1.5240e+00  1.5240e+00  1.5240e+00  1.5240e+00  1.5240e+00  1.5240e+00  1.5240e+00  1.5240e+00  1.5240e+00  1.5240e+00
  1.5240e+00  1.5240e+00  1.5240e+00  1.5240e+00  1.5240e+00  1.5240e+00  1.5240e+00  1.5240e+00  1.5240e+00  1.5240e+00
  1.5240e+00  1.5240e+00  1.5240e+00  1.5240e+00  1.6750e+00  1.8820e+00  1.9730e+00  2.0650e+00  1.9980e+00  1.9230e+00
  1.7170e+00  1.5240e+00  2.3690e+00  1.5240e+00  1.5240e+00  1.5240e+00  0.0000e+00  0.0000e+00  1.6860e+00 -1.9390e+00
 -6.0240e+00 -1.0388e+01 -1.5758e+01
  2.0740e+00  2.0640e+00  2.0530e+00  2.0430e+00  2.0360e+00  2.0280e+00  2.0210e+00  2.0130e+00  2.0060e+00  1.9990e+00
  1.9920e+00  1.9850e+00  1.9750e+00  1.9620e+00  1.9500e+00  1.9340e+00  1.9150e+00  1.8970e+00  1.8750e+00  1.8510e+00
  1.8250e+00  1.7530e+00  1.6920e+00  1.6560e+00  1.6260e+00  1.6040e+00  1.6000e+00  1.5950e+00  1.5780e+00  1.5620e+00
  1.5450e+00  1.5280e+00  1.5050e+00  1.4840e+00  1.4590e+00  1.4310e+00  1.4400e+00  1.4490e+00  1.4570e+00  1.4660e+00
  1.4750e+00  1.4830e+00  1.4920e+00  1.5000e+00  1.5090e+00  1.5180e+00  1.5240e+00  1.5240e+00  1.5240e+00  1.5240e+00
  1.5240e+00  1.5240e+00  1.5240e+00  1.5240e+00  1.5240e+00  1.5240e+00  1.5240e+00  1.5240e+00  1.5240e+00  1.5240e+00
  1.5240e+00  1.5240e+00  1.5240e+00  1.5240e+00  1.8530e+00  1.5560e+00  1.5240e+00  2.4200e+00  2.3840e+00  2.4520e+00
  2.4290e+00  2.3420e+00  1.5240e+00  1.5240e+00  1.5240e+00  1.6540e+00  1.7450e+00  1.8360e+00  1.7730e+00  1.6770e+00
  1.5240e+00  2.3470e+00  2.9580e+00  1.5240e+00  1.5240e+00  1.5240e+00  0.0000e+00  0.0000e+00  1.7760e+00 -2.6650e+00
 -6.4480e+00 -1.0858e+01 -1.6539e+01
  2.0710e+00  2.0600e+00  2.0500e+00  2.0400e+00  2.0300e+00  2.0220e+00  2.0150e+00  2.0070e+00  2.0000e+00  1.9930e+00
  1.9850e+00  1.9740e+00  1.9630e+00  1.9500e+00  1.9380e+00  1.9250e+00  1.9070e+00  1.8890e+00  1.8700e+00  1.8510e+00
  1.8310e+00  1.7570e+00  1.6800e+00  1.6150e+00  1.5850e+00  1.5580e+00  1.5590e+00  1.5570e+00  1.5450e+00  1.5290e+00
  1.5240e+00  1.5070e+00  1.4870e+00  1.4650e+00  1.4450e+00  1.4170e+00  1.4090e+00  1.4170e+00  1.4260e+00  1.4340e+00
  1.4430e+00  1.4520e+00  1.4600e+00  1.4690e+00  1.4780e+00  1.4860e+00  1.4950e+00  1.5030e+00  1.5120e+00  1.5210e+00
  1.5240e+00  1.5240e+00  1.5240e+00  1.5240e+00  1.5240e+00  1.5240e+00  1.5240e+00  1.5240e+00  1.5240e+00  1.5240e+00
  1.5240e+00  1.5240e+00  1.5240e+00  1.5500e+00  1.9540e+00  2.3580e+00  2.5430e+00  3.0480e+00  3.0480e+00  3.0480e+00
  3.0480e+00  3.0480e+00  3.0480e+00  1.5640e+00  1.5240e+00  1.5240e+00  1.5240e+00  1.6080e+00  1.5480e+00  1.5240e+00
  1.5240e+00  2.9360e+00  2.5580e+00  1.5240e+00  1.5240e+00  0.0000e+00  0.0000e+00  0.0000e+00  1.7760e+00 -2.7060e+00
 -6.6950e+00 -1.1192e+01 -1.7161e+01
  2.0650e+00  2.0560e+00  2.0470e+00  2.0370e+00  2.0270e+00  2.0160e+00  2.0090e+00  2.0010e+00  1.9940e+00  1.9860e+00
  1.9760e+00  1.9580e+00  1.9430e+00  1.9370e+00  1.9260e+00  1.9140e+00  1.8990e+00  1.8810e+00  1.8620e+00  1.8430e+00
  1.8290e+00  1.7510e+00  1.6510e+00  1.5980e+00  1.5370e+00  1.5230e+00  1.5120e+00  1.5130e+00  1.5150e+00  1.5180e+00
  1.5010e+00  1.4840e+00  1.4670e+00  1.4470e+00  1.4280e+00  1.4050e+00  1.3770e+00  1.3860e+00  1.3940e+00  1.4030e+00
  1.4110e+00  1.4200e+00  1.4290e+00  1.4370e+00  1.4460e+00  1.4550e+00  1.4630e+00  1.4720e+00  1.4800e+00  1.5070e+00
  1.5240e+00  1.5240e+00  1.5240e+00  1.5240e+00  1.5240e+00  1.5240e+00  1.5240e+00  1.5240e+00  1.5240e+00  1.5240e+00
  1.5240e+00  1.5240e+00  1.5240e+00  1.6510e+00  2.0550e+00  2.4590e+00  2.8640e+00  3.0480e+00  3.0480e+00  3.0480e+00
  3.0480e+00  3.0480e+00  3.0480e+00  2.9910e+00  1.5240e+00  1.5240e+00  1.5240e+00  1.5240e+00  1.5240e+00  1.5240e+00
  2.1440e+00  3.0480e+00  1.5240e+00  1.5240e+00  1.5240e+00  0.0000e+00  0.0000e+00  0.0000e+00  1.7760e+00 -2.5740e+00
 -6.7950e+00 -1.1363e+01 -1.7378e+01
  2.0600e+00  2.0510e+00  2.0410e+00  2.0320e+00  2.0230e+00  2.0130e+00  2.0030e+00  1.9950e+00  1.9880e+00  1.9790e+00
  1.9610e+00  1.9430e+00  1.9250e+00  1.9180e+00  1.9110e+00  1.9020e+00  1.8890e+00  1.8730e+00  1.8540e+00  1.8350e+00
  1.8290e+00  1.7520e+00  1.6220e+00  1.5340e+00  1.4940e+00  1.4730e+00  1.4640e+00  1.4690e+00  1.4800e+00  1.4960e+00
  1.4810e+00  1.4500e+00  1.4440e+00  1.4280e+00  1.4070e+00  1.3900e+00  1.3650e+00  1.3540e+00  1.3630e+00  1.3710e+00
  1.3800e+00  1.3880e+00  1.3970e+00  1.4060e+00  1.4140e+00  1.4230e+00  1.4320e+00  1.4440e+00  1.4790e+00  1.5120e+00
  1.5240e+00  1.5240e+00  1.5240e+00  1.5240e+00  1.5240e+00  1.5240e+00  1.5240e+00  1.5240e+00  1.5240e+00  1.5240e+00
  1.5240e+00  1.5240e+00  1.5240e+00  1.7520e+00  2.1560e+00  2.5610e+00  2.8590e+00  2.8620e+00  3.0480e+00  3.0480e+00
  3.0480e+00  3.0480e+00  3.0480e+00  3.0480e+00  3.0480e+00  2.5480e+00  2.4150e+00  2.8860e+00  3.0480e+00  3.0480e+00
  3.0480e+00  2.6090e+00  1.5660e+00  1.5240e+00  1.5240e+00  0.0000e+00  0.0000e+00  0.0000e+00  2.0000e+00 -2.7250e+00
 -6.7880e+00 -1.1359e+01 -1.7326e+01
  2.0580e+00  2.0460e+00  2.0360e+00  2.0270e+00  2.0180e+00  2.0080e+00  1.9990e+00  1.9890e+00  1.9820e+00  1.9640e+00
  1.9460e+00  1.9280e+00  1.9100e+00  1.8980e+00  1.8920e+00  1.8860e+00  1.8780e+00  1.8650e+00  1.8460e+00  1.8290e+00
  1.8290e+00  1.7390e+00  1.5610e+00  1.5020e+00  1.4560e+00  1.4220e+00  1.4240e+00  1.4320e+00  1.4540e+00  1.4710e+00
  1.4630e+00  1.4180e+00  1.4150e+00  1.4040e+00  1.3880e+00  1.3660e+00  1.3510e+00  1.3240e+00  1.3310e+00  1.3400e+00
  1.3480e+00  1.3570e+00  1.3650e+00  1.3740e+00  1.3830e+00  1.3910e+00  1.4170e+00  1.4500e+00  1.4800e+00  1.5090e+00
  1.5240e+00  1.5240e+00  1.5240e+00  1.5240e+00  1.5240e+00  1.5240e+00  1.5240e+00  1.5240e+00  1.5240e+00  1.5240e+00
  1.5240e+00  1.5240e+00  1.5240e+00  1.8530e+00  2.2580e+00  2.6620e+00  2.6800e+00  2.6380e+00  2.7080e+00  3.0480e+00
  3.0480e+00  3.0480e+00  3.0480e+00  3.0480e+00  3.0480e+00  3.0480e+00  3.0480e+00  3.0480e+00  3.0480e+00  3.0480e+00
  3.0480e+00  2.8750e+00  2.0020e+00  1.5240e+00  1.5240e+00  0.0000e+00  0.0000e+00  8.7000e-02  2.0000e+00 -2.6740e+00
 -6.6270e+00 -1.1128e+01 -1.6978e+01
  2.0560e+00  2.0440e+00  2.0320e+00  2.0210e+00  2.0120e+00  2.0030e+00  1.9940e+00  1.9840e+00  1.9670e+00  1.9490e+00
  1.9310e+00  1.9130e+00  1.8950e+00  1.8790e+00  1.8730e+00  1.8670e+00  1.8600e+00  1.8530e+00  1.8380e+00  1.8290e+00
  1.8230e+00  1.6850e+00  1.5490e+00  1.4830e+00  1.4340e+00  1.3850e+00  1.3820e+00  1.4090e+00  1.4270e+00  1.4450e+00
  1.4450e+00  1.3900e+00  1.3800e+00  1.3780e+00  1.3640e+00  1.3480e+00  1.3280e+00  1.3120e+00  1.2990e+00  1.3080e+00
  1.3170e+00  1.3250e+00  1.3340e+00  1.3430e+00  1.3540e+00  1.3880e+00  1.4190e+00  1.4490e+00  1.4920e+00  1.5240e+00
  1.5240e+00  1.5240e+00  1.5240e+00  1.5240e+00  1.5240e+00  1.5240e+00  1.5240e+00  1.5240e+00  1.5240e+00  1.5240e+00
  1.5240e+00  1.5240e+00  1.5500e+00  1.9540e+00  2.3590e+00  2.5810e+00  2.5020e+00  2.4550e+00  2.3780e+00  2.7840e+00
  3.0480e+00  3.0480e+00  2.9000e+00  3.0480e+00  3.0480e+00  3.0480e+00  3.0480e+00  3.0480e+00  3.0480e+00  3.0480e+00
  3.0480e+00  3.0480e+00  2.3600e+00  1.5240e+00  0.0000e+00  0.0000e+00  0.0000e+00  1.0000e+00  2.2240e+00 -2.3250e+00
 -6.4950e+00 -1.0881e+01 -1.6131e+01
  2.0530e+00  2.0420e+00  2.0300e+00  2.0180e+00  2.0070e+00  1.9970e+00  1.9880e+00  1.9770e+00  1.9550e+00  1.9340e+00
  1.9160e+00  1.8980e+00  1.8800e+00  1.8620e+00  1.8540e+00  1.8470e+00  1.8410e+00  1.8350e+00  1.8280e+00  1.8120e+00
  1.7840e+00  1.6940e+00  1.5730e+00  1.4930e+00  1.4470e+00  1.3940e+00  1.3720e+00  1.3820e+00  1.4000e+00  1.4180e+00
  1.4250e+00  1.3710e+00  1.3460e+00  1.3450e+00  1.3380e+00  1.3240e+00  1.3080e+00  1.2910e+00  1.2720e+00  1.2760e+00
  1.2850e+00  1.2940e+00  1.3020e+00  1.3270e+00  1.3570e+00  1.3940e+00  1.4370e+00  1.4800e+00  1.5230e+00  1.5240e+00
  1.5240e+00  1.5240e+00  1.5240e+00  1.5240e+00  1.5240e+00  1.5240e+00  1.5240e+00  1.5240e+00  1.5240e+00  1.5240e+00
  1.5240e+00  1.5240e+00  1.6510e+00  2.0560e+00  2.4600e+00  2.4030e+00  2.3240e+00  2.2710e+00  2.1620e+00  2.4040e+00
  2.6970e+00  2.5360e+00  2.3520e+00  2.5790e+00  2.8810e+00  3.0480e+00  3.0480e+00  3.0480e+00  3.0480e+00  3.0480e+00
  3.0480e+00  2.9880e+00  2.2170e+00  1.5240e+00  0.0000e+00  0.0000e+00 -1.0210e+00  4.2000e-02  2.0000e+00 -2.2940e+00
 -6.3180e+00 -1.0625e+01 -1.5039e+01
  2.0510e+00  2.0390e+00  2.0280e+00  2.0160e+00  2.0040e+00  1.9920e+00  1.9830e+00  1.9650e+00  1.9420e+00  1.9200e+00
  1.9010e+00  1.8830e+00  1.8650e+00  1.8460e+00  1.8340e+00  1.8270e+00  1.8160e+00  1.8040e+00  1.7930e+00  1.7740e+00
  1.7440e+00  1.6530e+00  1.5620e+00  1.5160e+00  1.4580e+00  1.3970e+00  1.3720e+00  1.3720e+00  1.3730e+00  1.3910e+00
  1.4020e+00  1.3530e+00  1.3110e+00  1.3100e+00  1.3100e+00  1.2980e+00  1.2840e+00  1.2680e+00  1.2530e+00  1.2450e+00
  1.2530e+00  1.2650e+00  1.2970e+00  1.3400e+00  1.3830e+00  1.4260e+00  1.4690e+00  1.5120e+00  1.5240e+00  1.5240e+00
  1.5240e+00  1.5240e+00  1.5240e+00  1.5240e+00  1.5240e+00  1.5240e+00  1.5240e+00  1.5240e+00  1.5240e+00  1.5240e+00
  1.5240e+00  1.5240e+00  1.7520e+00  2.1570e+00  2.3040e+00  2.2250e+00  2.1460e+00  2.0880e+00  1.9450e+00  2.0240e+00
  1.8990e+00  1.8340e+00  1.8920e+00  1.9560e+00  2.2580e+00  2.7460e+00  3.0480e+00  3.0480e+00  3.0480e+00  3.0480e+00
  3.0480e+00  2.7060e+00  1.9580e+00  1.5240e+00  0.0000e+00  0.0000e+00  0.0000e+00  0.0000e+00  1.4480e+00 -2.6940e+00
 -6.4080e+00 -1.0319e+01 -1.4426e+01
  2.0490e+00  2.0370e+00  2.0250e+00  2.0140e+00  2.0020e+00  1.9900e+00  1.9770e+00  1.9520e+00  1.9300e+00  1.9070e+00
  1.8850e+00  1.8670e+00  1.8490e+00  1.8310e+00  1.8080e+00  1.7920e+00  1.7810e+00  1.7690e+00  1.7580e+00  1.7360e+00
  1.7030e+00  1.6120e+00  1.5730e+00  1.5380e+00  1.4820e+00  1.4110e+00  1.3720e+00  1.3720e+00  1.3720e+00  1.3720e+00
  1.3800e+00  1.3350e+00  1.2800e+00  1.2760e+00  1.2750e+00  1.2720e+00  1.2580e+00  1.2440e+00  1.2290e+00  1.2190e+00
  1.2430e+00  1.2860e+00  1.3290e+00  1.3720e+00  1.4150e+00  1.4580e+00  1.5010e+00  1.5240e+00  1.5240e+00  1.5240e+00
  1.5240e+00  1.5240e+00  1.5240e+00  1.5240e+00  1.5240e+00  1.5240e+00  1.5240e+00  1.5240e+00  1.5240e+00  1.5240e+00
  1.5240e+00  1.5240e+00  1.8540e+00  2.2050e+00  2.1260e+00  2.0470e+00  1.9680e+00  1.9050e+00  1.7170e+00  1.6030e+00
  1.5240e+00  1.5240e+00  1.5240e+00  1.5240e+00  1.7770e+00  2.3720e+00  2.7400e+00  3.0480e+00  3.0480e+00  3.0480e+00
  3.0480e+00  2.5670e+00  1.7090e+00  1.5240e+00  0.0000e+00  0.0000e+00  0.0000e+00 -1.6990e+00  1.4480e+00 -2.6220e+00
 -6.4270e+00 -1.0065e+01 -1.3966e+01
  2.0470e+00  2.0350e+00  2.0230e+00  2.0120e+00  2.0000e+00  1.9880e+00  1.9720e+00  1.9460e+00  1.9200e+00  1.8950e+00
  1.8730e+00  1.8520e+00  1.8340e+00  1.8120e+00  1.7890e+00  1.7650e+00  1.7460e+00  1.7340e+00  1.7220e+00  1.6960e+00
  1.6620e+00  1.6240e+00  1.5830e+00  1.5410e+00  1.4890e+00  1.4300e+00  1.3720e+00  1.3720e+00  1.3720e+00  1.3720e+00
  1.3720e+00  1.2950e+00  1.2610e+00  1.2410e+00  1.2410e+00  1.2400e+00  1.2310e+00  1.2190e+00  1.2190e+00  1.2190e+00
  1.2230e+00  1.2870e+00  1.3560e+00  1.4040e+00  1.4470e+00  1.4900e+00  1.5240e+00  1.5240e+00  1.5240e+00  1.5240e+00
  1.5240e+00  1.5240e+00  1.5240e+00  1.5240e+00  1.5240e+00  1.5240e+00  1.5240e+00  1.5240e+00  1.5240e+00  1.5240e+00
  1.5240e+00  1.5510e+00  1.9550e+00  2.0270e+00  1.9480e+00  1.8690e+00  1.7900e+00  1.7210e+00  1.5240e+00  1.5240e+00
  1.5240e+00  1.6900e+00  1.5370e+00  1.5240e+00  1.5240e+00  1.7460e+00  2.0930e+00  3.0480e+00  3.0480e+00  3.0480e+00
  3.0480e+00  2.2240e+00  1.5240e+00  1.5240e+00 -2.7000e-02 -2.1000e-02 -1.5000e-02 -9.1600e-01  2.0000e+00 -2.6310e+00
 -6.5190e+00 -9.9930e+00 -1.3691e+01
  2.0440e+00  2.0330e+00  2.0210e+00  2.0090e+00  1.9980e+00  1.9860e+00  1.9660e+00  1.9400e+00  1.9150e+00  1.8890e+00
  1.8640e+00  1.8380e+00  1.8160e+00  1.7920e+00  1.7690e+00  1.7450e+00  1.7230e+00  1.7030e+00  1.6870e+00  1.6760e+00
  1.6760e+00  1.6350e+00  1.5940e+00  1.5470e+00  1.5050e+00  1.4460e+00  1.3790e+00  1.3720e+00  1.3720e+00  1.3720e+00
  1.3570e+00  1.2560e+00  1.2190e+00  1.2190e+00  1.2190e+00  1.2190e+00  1.2190e+00  1.2190e+00  1.2190e+00  1.2190e+00
  1.2440e+00  1.2980e+00  1.3520e+00  1.4090e+00  1.4660e+00  1.5220e+00  1.5240e+00  1.5240e+00  1.5240e+00  1.5240e+00
  1.5240e+00  1.5240e+00  1.5240e+00  1.5240e+00  1.5240e+00  1.5240e+00  1.5240e+00  1.5240e+00  1.5240e+00  1.5240e+00
  1.5240e+00  1.6520e+00  1.9280e+00  1.8490e+00  1.7700e+00  1.6910e+00  1.6120e+00  1.5330e+00  1.5240e+00  1.5240e+00
  2.3550e+00  2.3770e+00  2.0330e+00  1.5240e+00  1.5240e+00  1.5240e+00  2.2190e+00  3.0480e+00  3.0480e+00  3.0480e+00
  3.0480e+00  2.2070e+00  1.5240e+00 -2.3000e-02 -5.3000e-02 -8.3000e-02 -4.2000e-02 -1.5580e+00  2.0000e+00 -2.8540e+00
 -6.6780e+00 -1.0122e+01 -1.3766e+01
  2.0420e+00  2.0300e+00  2.0180e+00  2.0070e+00  1.9950e+00  1.9830e+00  1.9600e+00  1.9350e+00  1.9090e+00  1.8840e+00
  1.8580e+00  1.8330e+00  1.8000e+00  1.7730e+00  1.7490e+00  1.7250e+00  1.7020e+00  1.6800e+00  1.6760e+00  1.6760e+00
  1.6760e+00  1.6530e+00  1.6140e+00  1.5740e+00  1.5260e+00  1.4590e+00  1.3930e+00  1.3720e+00  1.3720e+00  1.3720e+00
  1.3720e+00  1.2830e+00  1.2190e+00  1.2190e+00  1.2190e+00  1.2190e+00  1.2190e+00  1.2190e+00  1.2190e+00  1.2190e+00
  1.2610e+00  1.3100e+00  1.3640e+00  1.4190e+00  1.4740e+00  1.5240e+00  1.5240e+00  1.5240e+00  1.5240e+00  1.5240e+00
  1.5240e+00  1.5240e+00  1.5240e+00  1.5240e+00  1.5240e+00  1.5240e+00  1.5240e+00  1.5240e+00  1.5240e+00  1.5240e+00
  1.5240e+00  1.7530e+00  1.7500e+00  1.6710e+00  1.5920e+00  1.5240e+00  1.5240e+00  1.5240e+00  1.5240e+00  3.0480e+00
  3.0480e+00  2.8810e+00  2.3070e+00  1.5680e+00  1.5240e+00  1.5240e+00  3.0480e+00  3.0480e+00  3.0480e+00  3.0480e+00
  3.0480e+00  2.2360e+00  1.5240e+00  0.0000e+00 -1.3000e-02 -5.0000e-03 -8.4100e-01 -9.8100e-01  4.4800e-01 -3.8670e+00
 -7.1320e+00 -1.0424e+01 -1.4033e+01
  2.0390e+00  2.0270e+00  2.0150e+00  2.0040e+00  1.9920e+00  1.9790e+00  1.9540e+00  1.9290e+00  1.9040e+00  1.8780e+00
  1.8530e+00  1.8260e+00  1.7920e+00  1.7580e+00  1.7290e+00  1.7060e+00  1.6820e+00  1.6760e+00  1.6760e+00  1.6760e+00
  1.6760e+00  1.6760e+00  1.6360e+00  1.5870e+00  1.5380e+00  1.4530e+00  1.3900e+00  1.3720e+00  1.3720e+00  1.3720e+00
  1.3720e+00  1.3180e+00  1.2610e+00  1.2190e+00  1.2190e+00  1.2190e+00  1.2190e+00  1.2190e+00  1.2190e+00  1.2190e+00
  1.2750e+00  1.3260e+00  1.3690e+00  1.4170e+00  1.4670e+00  1.5180e+00  1.5240e+00  1.5240e+00  1.5240e+00  1.5240e+00
  1.5240e+00  1.5240e+00  1.5240e+00  1.5240e+00  1.5240e+00  1.5240e+00  1.5240e+00  1.5240e+00  1.5240e+00  1.5240e+00
  1.5240e+00  1.6510e+00  1.5720e+00  1.5240e+00  1.5240e+00  1.5240e+00  1.5240e+00  1.5240e+00  2.3490e+00  3.0480e+00
  3.0480e+00  3.0480e+00  2.6780e+00  1.8710e+00  1.5240e+00  1.5240e+00  3.0480e+00  3.0480e+00  3.0480e+00  3.0480e+00
  3.0480e+00  2.3630e+00  1.5240e+00  0.0000e+00 -7.5600e-01 -1.0860e+00 -2.2840e+00 -2.7790e+00 -2.3330e+00 -4.8430e+00
 -7.4360e+00 -1.0714e+01 -1.4569e+01
  2.0380e+00  2.0250e+00  2.0130e+00  2.0010e+00  1.9890e+00  1.9730e+00  1.9480e+00  1.9230e+00  1.8980e+00  1.8730e+00
  1.8470e+00  1.8190e+00  1.7850e+00  1.7510e+00  1.7170e+00  1.6860e+00  1.6760e+00  1.6760e+00  1.6760e+00  1.6760e+00
  1.6760e+00  1.6730e+00  1.6310e+00  1.5880e+00  1.5430e+00  1.4420e+00  1.3720e+00  1.3720e+00  1.3720e+00  1.3720e+00
  1.3720e+00  1.3360e+00  1.2870e+00  1.2200e+00  1.2190e+00  1.2190e+00  1.2190e+00  1.2190e+00  1.2190e+00  1.2190e+00
  1.2660e+00  1.3220e+00  1.3790e+00  1.4320e+00  1.4760e+00  1.5240e+00  1.5240e+00  1.5240e+00  1.5240e+00  1.5240e+00
  1.5240e+00  1.5240e+00  1.5240e+00  1.5240e+00  1.5240e+00  1.5240e+00  1.5240e+00  1.5240e+00  1.5240e+00  1.5240e+00
  1.5510e+00  1.5240e+00  1.5240e+00  1.5240e+00  1.5240e+00  1.5240e+00  1.5240e+00  2.4880e+00  3.2840e+00  3.0480e+00
  3.0480e+00  3.0480e+00  3.0480e+00  1.7840e+00  1.5240e+00  1.5970e+00  2.5590e+00  3.0480e+00  3.0480e+00  3.0480e+00
  3.0480e+00  2.2480e+00  1.5240e+00 -7.3600e-01 -8.5800e-01 -1.4490e+00 -1.6410e+00  8.7000e-02  2.2400e-01 -4.3520e+00
 -7.4990e+00 -1.1005e+01 -1.5072e+01
  2.0360e+00  2.0240e+00  2.0120e+00  1.9990e+00  1.9870e+00  1.9670e+00  1.9420e+00  1.9170e+00  1.8920e+00  1.8670e+00
  1.8420e+00  1.8120e+00  1.7780e+00  1.7430e+00  1.7090e+00  1.6760e+00  1.6760e+00  1.6760e+00  1.6760e+00  1.6760e+00
  1.6760e+00  1.6670e+00  1.6220e+00  1.5800e+00  1.5380e+00  1.4420e+00  1.3800e+00  1.3720e+00  1.3720e+00  1.3720e+00
  1.3720e+00  1.3450e+00  1.2760e+00  1.2190e+00  1.2190e+00  1.2190e+00  1.2190e+00  1.2190e+00  1.2190e+00  1.2190e+00
  1.2570e+00  1.3130e+00  1.3700e+00  1.4270e+00  1.4830e+00  1.5240e+00  1.5240e+00  1.5240e+00  1.5240e+00  1.5240e+00
  1.5240e+00  1.5240e+00  1.5240e+00  1.5240e+00  1.5240e+00  1.5240e+00  1.5240e+00  1.5240e+00  1.5240e+00  1.5240e+00
  1.5240e+00  1.5240e+00  1.5240e+00  1.5240e+00  1.5240e+00  1.5700e+00  2.5350e+00  4.4190e+00  3.9040e+00  3.3330e+00
  3.0480e+00  3.0480e+00  3.0480e+00  2.3060e+00  1.5240e+00  1.8570e+00  2.5860e+00  3.0070e+00  3.0480e+00  3.0480e+00
  2.6610e+00  1.5240e+00 -1.3900e-01 -8.2700e-01 -1.5500e-01  0.0000e+00  0.0000e+00  8.7000e-02  2.2400e-01 -3.2340e+00
 -7.3100e+00 -1.1090e+01 -1.5448e+01
  2.0340e+00  2.0220e+00  2.0090e+00  1.9970e+00  1.9850e+00  1.9630e+00  1.9370e+00  1.9120e+00  1.8870e+00  1.8620e+00
  1.8380e+00  1.8070e+00  1.7700e+00  1.7350e+00  1.7000e+00  1.6760e+00  1.6760e+00  1.6760e+00  1.6760e+00  1.6760e+00
  1.6760e+00  1.6760e+00  1.6450e+00  1.5990e+00  1.5350e+00  1.4620e+00  1.4330e+00  1.3960e+00  1.3590e+00  1.3720e+00
  1.3720e+00  1.3270e+00  1.2490e+00  1.2190e+00  1.2190e+00  1.2190e+00  1.2190e+00  1.2190e+00  1.2190e+00  1.2190e+00
  1.2330e+00  1.2840e+00  1.3350e+00  1.3850e+00  1.4230e+00  1.5200e+00  1.5240e+00  1.5240e+00  1.5240e+00  1.5240e+00
  1.5240e+00  1.5240e+00  1.5240e+00  1.5240e+00  1.5240e+00  1.5240e+00  1.5240e+00  1.5240e+00  1.5240e+00  1.5240e+00
  1.5240e+00  1.5240e+00  1.5240e+00  1.5240e+00  1.5240e+00  2.0370e+00  2.9080e+00  4.5720e+00  4.3090e+00  3.9520e+00
  3.3810e+00  3.0480e+00  3.0480e+00  3.0480e+00  1.5240e+00  1.8300e+00  2.3050e+00  2.7060e+00  3.0480e+00  3.0480e+00
  1.5240e+00  1.5240e+00 -9.8800e-01 -9.5000e-02 -1.4220e+00  0.0000e+00  6.0200e-01  0.0000e+00  1.2240e+00 -2.6440e+00
 -6.4580e+00 -1.1018e+01 -1.5506e+01
  2.0320e+00  2.0200e+00  2.0070e+00  1.9950e+00  1.9820e+00  1.9580e+00  1.9330e+00  1.9080e+00  1.8830e+00  1.8600e+00
  1.8370e+00  1.8060e+00  1.7710e+00  1.7350e+00  1.6980e+00  1.6760e+00  1.6760e+00  1.6760e+00  1.6760e+00  1.6760e+00
  1.6760e+00  1.6760e+00  1.6760e+00  1.6030e+00  1.5180e+00  1.4810e+00  1.4390e+00  1.3960e+00  1.3400e+00  1.3000e+00
  1.2860e+00  1.2220e+00  1.2190e+00  1.2190e+00  1.2190e+00  1.2190e+00  1.2190e+00  1.2190e+00  1.2190e+00  1.2190e+00
  1.2190e+00  1.2330e+00  1.2810e+00  1.3170e+00  1.3850e+00  1.4570e+00  1.5240e+00  1.5240e+00  1.5240e+00  1.5240e+00
  1.5240e+00  1.5240e+00  1.5240e+00  1.5240e+00  1.5240e+00  1.5240e+00  1.5240e+00  1.5240e+00  1.5240e+00  1.5240e+00
  1.5240e+00  1.5240e+00  1.5240e+00  1.5240e+00  1.5240e+00  1.5240e+00  2.5420e+00  4.5700e+00  4.2780e+00  3.9750e+00
  3.6710e+00  3.3680e+00  3.0480e+00  3.0480e+00  1.9600e+00  1.6020e+00  2.0030e+00  2.4540e+00  2.9090e+00  2.3970e+00
  1.5240e+00  1.5240e+00 -5.5100e-01 -2.4480e+00 -1.3590e+00 -1.8060e+00 -9.0000e-02  0.0000e+00  1.8480e+00 -2.5530e+00
 -6.1080e+00 -1.0861e+01 -1.5379e+01
  2.0300e+00  2.0180e+00  2.0050e+00  1.9930e+00  1.9790e+00  1.9540e+00  1.9290e+00  1.9060e+00  1.8830e+00  1.8590e+00
  1.8360e+00  1.8050e+00  1.7710e+00  1.7350e+00  1.6990e+00  1.6760e+00  1.6760e+00  1.6760e+00  1.6760e+00  1.6760e+00
  1.6760e+00  1.6760e+00  1.6760e+00  1.5400e+00  1.5020e+00  1.4770e+00  1.4390e+00  1.3960e+00  1.3400e+00  1.2650e+00
  1.2190e+00  1.2190e+00  1.2190e+00  1.2190e+00  1.2190e+00  1.2190e+00  1.2190e+00  1.2190e+00  1.2190e+00  1.2190e+00
  1.2190e+00  1.2190e+00  1.2190e+00  1.2390e+00  1.2580e+00  1.2850e+00  1.4010e+00  1.5240e+00  1.5240e+00  1.5240e+00
  1.5240e+00  1.5240e+00  1.5240e+00  1.5240e+00  1.5240e+00  1.5240e+00  1.5240e+00  1.5240e+00  1.5240e+00  1.5240e+00
  1.5240e+00  1.5240e+00  1.5240e+00  1.5240e+00  1.5240e+00  1.5240e+00  1.5240e+00  3.7260e+00  3.9690e+00  3.6880e+00
  3.4070e+00  3.1260e+00  3.0480e+00  3.0480e+00  3.0480e+00  1.5240e+00  1.8350e+00  2.3810e+00  3.0480e+00  1.5240e+00
  1.5240e+00 -1.3030e+00 -1.3550e+00 -2.3600e+00  5.3700e-01  3.5370e+00  0.0000e+00  8.7000e-02  2.0000e+00 -2.3920e+00
 -5.9280e+00 -1.0605e+01 -1.5157e+01
  2.0270e+00  2.0150e+00  2.0030e+00  1.9900e+00  1.9750e+00  1.9520e+00  1.9290e+00  1.9050e+00  1.8820e+00  1.8580e+00
  1.8350e+00  1.8030e+00  1.7690e+00  1.7350e+00  1.7000e+00  1.6760e+00  1.6760e+00  1.6760e+00  1.6760e+00  1.6760e+00
  1.6760e+00  1.6760e+00  1.6760e+00  1.5260e+00  1.4930e+00  1.4630e+00  1.4350e+00  1.3960e+00  1.3400e+00  1.2630e+00
  1.1350e+00  1.1420e+00  1.1500e+00  1.2190e+00  1.2190e+00  1.2190e+00  1.2190e+00  1.2190e+00  1.2190e+00  1.2190e+00
  1.2190e+00  1.2190e+00  1.2190e+00  1.2190e+00  1.2190e+00  1.2190e+00  1.2190e+00  1.5240e+00  1.5240e+00  1.5240e+00
  1.5240e+00  1.5240e+00  1.5240e+00  1.5240e+00  1.5240e+00  1.5240e+00  1.5240e+00  1.5240e+00  1.5240e+00  1.5240e+00
  1.5240e+00  1.5240e+00  1.5240e+00  1.5240e+00  1.5240e+00  1.5240e+00  1.5240e+00  2.3540e+00  3.2130e+00  3.3780e+00
  3.0970e+00  3.0480e+00  3.0480e+00  3.0480e+00  3.0480e+00  1.8290e+00  1.5240e+00  2.1870e+00  3.0480e+00  1.5240e+00
  1.5240e+00 -1.6260e+00 -1.8080e+00 -2.3390e+00 -6.2000e-02 -4.5000e-02 -1.3580e+00  8.7000e-02  2.2240e+00 -2.2770e+00
 -5.6070e+00 -1.0068e+01 -1.4527e+01
  2.0270e+00  2.0140e+00  2.0020e+00  1.9900e+00  1.9740e+00  1.9510e+00  1.9280e+00  1.9040e+00  1.8810e+00  1.8570e+00
  1.8340e+00  1.8020e+00  1.7680e+00  1.7340e+00  1.7000e+00  1.6760e+00  1.6760e+00  1.6760e+00  1.6760e+00  1.6760e+00
  1.6760e+00  1.6760e+00  1.6760e+00  1.5200e+00  1.4880e+00  1.4560e+00  1.4240e+00  1.3930e+00  1.3400e+00  1.2460e+00
  1.0290e+00  1.0280e+00  1.0360e+00  1.1840e+00  1.2190e+00  1.2190e+00  1.2190e+00  1.2190e+00  1.2190e+00  1.2190e+00
  1.2190e+00  1.2190e+00  1.2190e+00  1.2190e+00  1.2190e+00  1.2190e+00  1.3060e+00  1.5230e+00  1.5240e+00  1.5240e+00
  1.5240e+00  1.5240e+00  1.5240e+00  1.5240e+00  1.5240e+00  1.5240e+00  1.5240e+00  1.5240e+00  1.5240e+00  1.5240e+00
  1.5240e+00  1.5240e+00  1.5240e+00  1.5240e+00  1.5240e+00  1.5240e+00  1.5240e+00  1.5240e+00  2.3120e+00  3.0260e+00
  3.0480e+00  3.0480e+00  3.0480e+00  3.0480e+00  3.0480e+00  2.9020e+00  1.5240e+00  1.5240e+00  1.5240e+00  1.5240e+00
 -1.5830e+00 -2.4070e+00 -1.6120e+00 -1.5240e+00 -2.7080e+00 -4.7700e-01 -3.6300e-01 -2.5000e-02  2.2240e+00 -2.0710e+00
 -5.1970e+00 -9.4680e+00 -1.3643e+01
  2.0220e+00  2.0110e+00  2.0000e+00  1.9890e+00  1.9730e+00  1.9500e+00  1.9270e+00  1.9030e+00  1.8800e+00  1.8560e+00
  1.8330e+00  1.8010e+00  1.7670e+00  1.7330e+00  1.6990e+00  1.6760e+00  1.6760e+00  1.6760e+00  1.6760e+00  1.6760e+00
  1.6760e+00  1.6760e+00  1.6760e+00  1.5190e+00  1.4850e+00  1.4520e+00  1.4200e+00  1.3890e+00  1.3230e+00  1.2300e+00
  9.2300e-01  9.2000e-01  9.8600e-01  1.1220e+00  1.2190e+00  1.2190e+00  1.2190e+00  1.2190e+00  1.2190e+00  1.2190e+00
  1.2190e+00  1.2190e+00  1.2190e+00  1.2190e+00  1.2190e+00  1.2410e+00  1.3640e+00  1.4790e+00  1.5240e+00  1.5240e+00
  1.5240e+00  1.5240e+00  1.5240e+00  1.5240e+00  1.5240e+00  1.5240e+00  1.5240e+00  1.5240e+00  1.5240e+00  1.5240e+00
  1.5240e+00  1.5240e+00  1.5240e+00  1.5240e+00  1.5240e+00  1.5240e+00  1.5240e+00  1.5240e+00  1.5310e+00  2.2070e+00
  2.7310e+00  3.0480e+00  3.0480e+00  3.0480e+00  3.0480e+00  2.9390e+00  2.1690e+00  1.5240e+00  1.5240e+00 -1.6080e+00
 -1.7570e+00 -1.7760e+00 -1.7250e+00 -1.3030e+00 -1.6030e+00 -1.7980e+00 -1.1640e+00  0.0000e+00  2.3800e+00 -2.1490e+00
 -4.7620e+00 -8.7680e+00 -1.2767e+01
  2.0200e+00  2.0090e+00  1.9990e+00  1.9890e+00  1.9750e+00  1.9500e+00  1.9250e+00  1.9020e+00  1.8790e+00  1.8550e+00
  1.8320e+00  1.7990e+00  1.7650e+00  1.7320e+00  1.6990e+00  1.6760e+00  1.6760e+00  1.6760e+00  1.6760e+00  1.6760e+00
  1.6760e+00  1.6300e+00  1.5950e+00  1.5100e+00  1.4820e+00  1.4500e+00  1.4180e+00  1.3870e+00  1.3100e+00  1.1660e+00
  9.1400e-01  9.1400e-01  9.1400e-01  1.0600e+00  1.2190e+00  1.2190e+00  1.2190e+00  1.2190e+00  1.2190e+00  1.2190e+00
  1.2190e+00  1.2190e+00  1.2190e+00  1.2190e+00  1.2190e+00  1.2350e+00  1.3530e+00  1.4710e+00  1.5240e+00  1.5240e+00
  1.5240e+00  1.5240e+00  1.5240e+00  1.5240e+00  1.5240e+00  1.5240e+00  1.5240e+00  1.5240e+00  1.5240e+00  1.5240e+00
  1.5240e+00  1.5240e+00  1.5240e+00  1.5240e+00  1.5240e+00  1.5240e+00  1.5240e+00  1.5240e+00  1.5240e+00  1.5240e+00
  1.9310e+00  2.5330e+00  3.0480e+00  3.0480e+00  3.0480e+00  2.5100e+00  1.8650e+00  1.5240e+00  1.5240e+00 -1.4880e+00
 -1.5790e+00 -1.7490e+00 -1.5520e+00 -8.8300e-01 -8.5900e-01  0.0000e+00  0.0000e+00 -6.4300e-01  2.7760e+00 -1.2900e+00
 -4.1190e+00 -7.6530e+00 -1.1378e+01
  2.0210e+00  2.0110e+00  2.0000e+00  1.9900e+00  1.9780e+00  1.9530e+00  1.9280e+00  1.9020e+00  1.8780e+00  1.8540e+00
  1.8310e+00  1.7980e+00  1.7650e+00  1.7320e+00  1.7000e+00  1.6760e+00  1.6760e+00  1.6760e+00  1.6760e+00  1.6760e+00
  1.6760e+00  1.5980e+00  1.5240e+00  1.4980e+00  1.4720e+00  1.4460e+00  1.4160e+00  1.3840e+00  1.3020e+00  1.0050e+00
  9.1400e-01  9.1400e-01  9.1400e-01  9.5600e-01  1.2190e+00  1.2190e+00  1.2190e+00  1.2190e+00  1.2190e+00  1.2190e+00
  1.2240e+00  1.2360e+00  1.2480e+00  1.2280e+00  1.2190e+00  1.2500e+00  1.3410e+00  1.4460e+00  1.5240e+00  1.5240e+00
  1.5240e+00  1.5240e+00  1.5240e+00  1.5240e+00  1.5240e+00  1.5240e+00  1.5240e+00  1.5240e+00  1.5240e+00  1.5240e+00
  1.5240e+00  1.5240e+00  1.5240e+00  1.5240e+00  1.5240e+00  1.5240e+00  1.5240e+00  1.5240e+00  1.5240e+00  1.5240e+00
  1.5240e+00  1.7570e+00  2.5130e+00  3.0480e+00  2.9190e+00  2.0910e+00  1.5240e+00  1.5240e+00  1.5240e+00 -2.4180e+00
 -1.5000e+00 -1.6450e+00 -1.8000e+00 -1.6640e+00 -9.9000e-02 -2.0780e+00  0.0000e+00 -2.4800e-01  1.7760e+00 -9.8100e-01
 -3.4490e+00 -6.2090e+00 -9.9760e+00
  2.0230e+00  2.0130e+00  2.0020e+00  1.9920e+00  1.9810e+00  1.9570e+00  1.9310e+00  1.9060e+00  1.8810e+00  1.8550e+00
  1.8300e+00  1.7980e+00  1.7650e+00  1.7330e+00  1.7000e+00  1.6760e+00  1.6760e+00  1.6760e+00  1.6760e+00  1.6760e+00
  1.6600e+00  1.5890e+00  1.5220e+00  1.4940e+00  1.4650e+00  1.4370e+00  1.4090e+00  1.3820e+00  1.2950e+00  9.0700e-01
  8.7000e-01  9.1400e-01  9.1400e-01  9.6600e-01  1.2190e+00  1.2190e+00  1.2190e+00  1.2310e+00  1.2430e+00  1.2560e+00
  1.2680e+00  1.2800e+00  1.2920e+00  1.2700e+00  1.2480e+00  1.2970e+00  1.3620e+00  1.4520e+00  1.5240e+00  1.5240e+00
  1.5240e+00  1.5240e+00  1.5240e+00  1.5240e+00  1.5240e+00  1.5240e+00  1.5240e+00  1.5240e+00  1.5240e+00  1.5240e+00
  1.5240e+00  1.5240e+00  1.5240e+00  1.5240e+00  1.5240e+00  1.5240e+00  1.5240e+00  1.5240e+00  1.5240e+00  1.5240e+00
  1.5240e+00  1.5240e+00  1.5240e+00  1.7460e+00  1.8740e+00  1.6710e+00  1.5240e+00  1.5240e+00  1.5240e+00 -1.5980e+00
 -2.2060e+00 -1.8920e+00 -2.0020e+00 -2.3000e+00  0.0000e+00  0.0000e+00 -1.8760e+00 -2.9910e+00  1.0400e-01 -7.4800e-01
 -2.9520e+00 -5.4290e+00 -8.6490e+00
  2.0240e+00  2.0150e+00  2.0050e+00  1.9940e+00  1.9840e+00  1.9630e+00  1.9370e+00  1.9120e+00  1.8890e+00  1.8660e+00
  1.8370e+00  1.8030e+00  1.7690e+00  1.7340e+00  1.7010e+00  1.6760e+00  1.6760e+00  1.6760e+00  1.6760e+00  1.6760e+00
  1.6580e+00  1.5870e+00  1.5210e+00  1.4930e+00  1.4650e+00  1.4360e+00  1.4050e+00  1.3750e+00  1.2940e+00  7.5200e-01