# Name File for MODFLOW created on 7/22/2013 by ModelMuse
LIST 11 MMuseExample25.lst REPLACE
DATA(BINARY) 9 MMuseExample25.cbc REPLACE
DIS 12 MMuseExample25.dis OLD
BAS6 13 MMuseExample25.bas OLD
OC 39 MMuseExample25.oc OLD
DATA(BINARY) 37 MMuseExample25.bhd REPLACE
DATA(BINARY) 38 MMuseExample25.bdn REPLACE
PCG 18 MMuseExample25.pcg OLD
LPF 14 MMuseExample25.lpf OLD
WEL 20 MMuseExample25.wel OLD
RIV 21 MMuseExample25.riv OLD
RCH 24 MMuseExample25.rch OLD
PVAL 52 MMuseExample25.pval OLD
