# MODFLOW2000 Well Package         
PARAMETER  0  0                            Item 1: NPWEL MXL
       127        50  AUX group            Item 2: MXACTW IWELCB Option
       127         0               Stress Period 1     
         1       106        30 -0.391E+04  1  AF1      
         1       106        30 -0.391E+04  1  AF2      
         1       106        30 -0.391E+04  1  AF3      
         1       123        12 -0.127E+04  1  EG1      
         1       105        30  0.000E+00  1  ET1      
         1       115        17 -0.197E+04  1  FC1      
         1       115        16 -0.197E+04  1  FC2      
         1       115        16 -0.197E+04  1  FC3      
         1       115        17 -0.197E+04  1  FC4      
         1       115        17 -0.197E+04  1  FC5      
         1       118        12 -0.681E+04  1  FK1      
         1       118        12 -0.681E+04  1  FK2      
         1       118        12 -0.681E+04  1  FK3      
         1       118        12 -0.681E+04  1  FK4      
         1       118        12 -0.681E+04  1  FK5      
         1       118        12 -0.681E+04  1  FK6      
         1       118        12 -0.681E+04  1  FK7      
         1       118        12 -0.681E+04  1  FK8      
         1        32        56  0.000E+00  1  Hial_11  
         1        32        56  0.000E+00  2  Hial_12  
         1        32        56 -0.155E+05  2  Hial_13  
         1       110        21 -0.545E+04  2  HR1      
         1       110        20 -0.545E+04  2  HR2      
         1       106        26  0.000E+00  2  LC1      
         1       106        26 -0.254E+01  2  LC2      
         1       106        26 -0.650E+04  2  LC3      
         1       106        26 -0.137E+04  2  LC4      
         1       106        26 -0.818E+04  2  LC5      
         1       106        26  0.000E+00  2  LC6      
         1        35        56  0.000E+00  2  MSL_1    
         1        35        55 -0.133E+05  2  MSL_2    
         1        34        55 -0.133E+05  2  MSL_3    
         1        34        56  0.000E+00  2  MSL_4    
         1        34        55  0.000E+00  2  MSL_5    
         1        35        54 -0.266E+05  3  MSL_6    
         1        35        54  0.000E+00  3  MSL_7    
         1        35        55 -0.133E+05  3  MSL_8    
         1        32        53  0.000E+00  3  MSU_22   
         1        31        53 -0.133E+05  3  MSU_23   
         1        31        52 -0.133E+05  3  MSU_9    
         1        32        55 -0.155E+05  3  MSU_10   
         1        32        55  0.000E+00  3  MSU_14   
         1        31        55  0.000E+00  3  MSU_15   
         1        31        54  0.000E+00  3  MSU_16   
         1        32        55  0.000E+00  3  MSU_17   
         1        31        54 -0.133E+05  3  MSU_18   
         1        31        53  0.000E+00  3  MSU_19   
         1        32        54  0.000E+00  3  MSU_20   
         1        32        54  0.000E+00  3  MSU_21   
         1       101        28 -0.696E+02  3  NJ1      
         1         5        70 -0.549E+04  3  Nor_1    
         1         5        70 -0.549E+04  3  Nor_2    
         1         4        70 -0.549E+04  4  Nor_3    
         1         5        70 -0.549E+04  4  Nor_4    
         1         4        69 -0.549E+04  4  Nor_5    
         1         4        69 -0.549E+04  4  Nor_6    
         1         4        69 -0.549E+04  4  Nor_7    
         1         4        70 -0.549E+04  4  Nor_8    
         1         5        70 -0.549E+04  4  Nor_9    
         1         5        70 -0.549E+04  4  Nor_10   
         1       114        24 -0.817E+04  4  NT1      
         1        30        30 -0.354E+05  4  NW_11    
         1        31        30 -0.354E+05  4  NW_12    
         1        31        30 -0.354E+05  4  NW_13    
         1        32        30  0.000E+00  4  NW_14    
         1        32        30  0.000E+00  4  NW_15    
         1        26        30 -0.138E+05  4  NW_1     
         1        27        30 -0.354E+05  4  NW_2     
         1        27        30 -0.354E+05  4  NW_3     
         1        28        30 -0.354E+05  4  NW_4     
         1        28        30 -0.530E+05  4  NW_5     
         1        28        30  0.000E+00  4  NW_6     
         1        29        31 -0.369E+05  4  NW_7     
         1        29        30  0.000E+00  4  NW_8     
         1        29        30 -0.530E+05  4  NW_9     
         1        30        30 -0.215E+05  4  NW_10    
         1        59        46  0.000E+00  4  OR1      
         1        59        46 -0.255E+05  4  OR2      
         1        59        46 -0.255E+05  4  OR3      
         1        59        46 -0.255E+05  4  OR4      
         1        59        46 -0.255E+05  4  OR5      
         1        59        46 -0.255E+05  4  OR6      
         1        59        46 -0.255E+05  4  OR7      
         1        59        46 -0.459E+05  4  OR8      
         1        60        46 -0.459E+05  5  OR9      
         1        60        46 -0.459E+05  5  OR10     
         1        31        56 -0.154E+04  5  Pres_1   
         1        31        56  0.000E+00  5  Pres_2   
         1        31        56 -0.154E+04  5  Pres_3   
         1        31        56 -0.154E+04  5  Pres_4   
         1        31        56 -0.154E+04  5  Pres_5   
         1        31        56 -0.154E+04  5  Pres_6   
         1        31        56 -0.354E+05  5  Pres_7   
         1       106        15 -0.230E+03  5  RD1      
         1        60        41  0.000E+00  5  SC1      
         1        60        41  0.000E+00  5  SC2      
         1        61        42  0.000E+00  5  SC3      
         1        61        41 -0.885E+04  5  SC4      
         1        62        34 -0.297E+05  5  SW8      
         1        62        34 -0.297E+05  5  SW9      
         1        62        34 -0.297E+05  5  SW10     
         1        63        34 -0.159E+05  5  SW11     
         1        63        34 -0.425E+05  5  SW12     
         1        63        34  0.000E+00  5  SW13     
         1        63        33 -0.425E+05  5  SW14     
         1        61        35  0.000E+00  5  SW1      
         1        61        35  0.000E+00  5  SW2      
         1        61        35 -0.297E+05  5  SW3      
         1        62        35 -0.297E+05  5  SW4      
         1        62        35 -0.297E+05  5  SW5      
         1        62        35 -0.297E+05  5  SW6      
         1        62        34 -0.297E+05  5  SW7      
         1       109        17 -0.430E+04  5  WP1      
         1       109        17 -0.430E+04  5  WP2      
         1       109        17 -0.430E+04  5  WP3      
         1       109        17 -0.430E+04  5  WP4      
         1        19        70 -0.326E+04  5  WS_1     
         1        19        70 -0.326E+04  5  WS_2     
         1        19        69 -0.326E+04  5  WS_3     
         1        19        69 -0.326E+04  5  WS_4     
         1        19        68 -0.326E+04  5  WS_5     
         1        19        68 -0.326E+04  5  WS_6     
         1        18        69 -0.326E+04  5  WS_7     
         1        18        69 -0.326E+04  5  WS_8     
         1        52        18  0.000E+00  5  WW1      
         1        52        18  0.000E+00  5  WW2      
         1        53        18  0.000E+00  5  WW3      
       127         0                Stress Period 2     
         1       106        30 -0.391E+04  6  AF1      
         1       106        30 -0.391E+04  6  AF2      
         1       106        30 -0.391E+04  6  AF3      
         1       123        12 -0.127E+04  6  EG1      
         1       105        30  0.000E+00  6  ET1      
         1       115        17 -0.197E+04  6  FC1      
         1       115        16 -0.197E+04  6  FC2      
         1       115        16 -0.197E+04  6  FC3      
         1       115        17 -0.197E+04  6  FC4      
         1       115        17 -0.197E+04  6  FC5      
         1       118        12 -0.681E+04  6  FK1      
         1       118        12 -0.681E+04  6  FK2      
         1       118        12 -0.681E+04  6  FK3      
         1       118        12 -0.681E+04  6  FK4      
         1       118        12 -0.681E+04  6  FK5      
         1       118        12 -0.681E+04  6  FK6      
         1       118        12 -0.681E+04  6  FK7      
         1       118        12 -0.681E+04  6  FK8      
         1        32        56  0.000E+00  6  Hial_11  
         1        32        56  0.000E+00  6  Hial_12  
         1        32        56 -0.173E+05  6  Hial_13  
         1       110        21 -0.545E+04  6  HR1      
         1       110        20 -0.545E+04  6  HR2      
         1       106        26  0.000E+00  6  LC1      
         1       106        26 -0.254E+01  6  LC2      
         1       106        26 -0.650E+04  6  LC3      
         1       106        26 -0.137E+04  6  LC4      
         1       106        26 -0.818E+04  6  LC5      
         1       106        26  0.000E+00  7  LC6      
         1        35        56  0.000E+00  7  MSL_1    
         1        35        55 -0.148E+05  7  MSL_2    
         1        34        55 -0.148E+05  7  MSL_3    
         1        34        56  0.000E+00  7  MSL_4    
         1        34        55  0.000E+00  7  MSL_5    
         1        35        54 -0.296E+05  7  MSL_6    
         1        35        54  0.000E+00  7  MSL_7    
         1        35        55 -0.148E+05  7  MSL_8    
         1        32        53 -0.148E+05  7  MSU_22   
         1        31        53  0.000E+00  7  MSU_23   
         1        31        52 -0.148E+05  7  MSU_9    
         1        32        55 -0.173E+05  7  MSU_10   
         1        32        55  0.000E+00  7  MSU_14   
         1        31        55  0.000E+00  7  MSU_15   
         1        31        54  0.000E+00  7  MSU_16   
         1        32        55  0.000E+00  7  MSU_17   
         1        31        54 -0.148E+05  7  MSU_18   
         1        31        53  0.000E+00  7  MSU_19   
         1        32        54  0.000E+00  7  MSU_20   
         1        32        54  0.000E+00  7  MSU_21   
         1       101        28 -0.696E+02  7  NJ1      
         1         5        70 -0.549E+04  7  Nor_1    
         1         5        70 -0.549E+04  7  Nor_2    
         1         4        70 -0.549E+04  7  Nor_3    
         1         5        70 -0.549E+04  7  Nor_4    
         1         4        69 -0.549E+04  7  Nor_5    
         1         4        69 -0.549E+04  7  Nor_6    
         1         4        69 -0.549E+04  7  Nor_7    
         1         4        70 -0.549E+04  8  Nor_8    
         1         5        70 -0.549E+04  8  Nor_9    
         1         5        70 -0.549E+04  8  Nor_10   
         1       114        24 -0.817E+04  8  NT1      
         1        30        30 -0.193E+05  8  NW_11    
         1        31        30 -0.411E+05  8  NW_12    
         1        31        30 -0.283E+05  8  NW_13    
         1        32        30  0.000E+00  8  NW_14    
         1        32        30  0.000E+00  8  NW_15    
         1        26        30 -0.617E+05  8  NW_1     
         1        27        30 -0.240E+05  8  NW_2     
         1        27        30 -0.180E+05  8  NW_3     
         1        28        30 -0.411E+05  8  NW_4     
         1        28        30 -0.617E+05  8  NW_5     
         1        28        30  0.000E+00  8  NW_6     
         1        29        31 -0.411E+05  8  NW_7     
         1        29        30  0.000E+00  8  NW_8     
         1        29        30 -0.617E+05  8  NW_9     
         1        30        30  0.000E+00  8  NW_10    
         1        59        46  0.000E+00  8  OR1      
         1        59        46 -0.243E+05  8  OR2      
         1        59        46 -0.243E+05  8  OR3      
         1        59        46  0.000E+00  8  OR4      
         1        59        46 -0.243E+05  8  OR5      
         1        59        46 -0.243E+05  8  OR6      
         1        59        46 -0.243E+05  8  OR7      
         1        59        46 -0.438E+05  8  OR8      
         1        60        46 -0.438E+05  8  OR9      
         1        60        46 -0.438E+05  8  OR10     
         1        31        56  0.000E+00  8  Pres_1   
         1        31        56  0.000E+00  8  Pres_2   
         1        31        56  0.000E+00  8  Pres_3   
         1        31        56  0.000E+00  8  Pres_4   
         1        31        56  0.000E+00  8  Pres_5   
         1        31        56  0.000E+00  8  Pres_6   
         1        31        56 -0.411E+05  8  Pres_7   
         1       106        15 -0.230E+03  8  RD1      
         1        60        41  0.000E+00  8  SC1      
         1        60        41  0.000E+00  8  SC2      
         1        61        42  0.000E+00  8  SC3      
         1        61        41 -0.405E+05  8  SC4      
         1        62        34 -0.284E+05  8  SW8      
         1        62        34 -0.284E+05  8  SW9      
         1        62        34 -0.284E+05  8  SW10     
         1        63        34 -0.405E+05  8  SW11     
         1        63        34 -0.405E+05  8  SW12     
         1        63        34  0.000E+00  8  SW13     
         1        63        33 -0.405E+05  8  SW14     
         1        61        35  0.000E+00  8  SW1      
         1        61        35  0.000E+00  9  SW2      
         1        61        35 -0.284E+05  9  SW3      
         1        62        35 -0.284E+05  9  SW4      
         1        62        35 -0.284E+05  9  SW5      
         1        62        35 -0.284E+05  9  SW6      
         1        62        34 -0.284E+05  9  SW7      
         1       109        17 -0.430E+04  9  WP1      
         1       109        17 -0.430E+04  9  WP2      
         1       109        17 -0.430E+04  9  WP3      
         1       109        17 -0.430E+04  9  WP4      
         1        19        70 -0.326E+04  9  WS_1     
         1        19        70 -0.326E+04  9  WS_2     
         1        19        69 -0.326E+04  9  WS_3     
         1        19        69 -0.326E+04  9  WS_4     
         1        19        68 -0.326E+04  9  WS_5     
         1        19        68 -0.326E+04  9  WS_6     
         1        18        69 -0.326E+04  9  WS_7     
         1        18        69 -0.326E+04  9  WS_8     
         1        52        18  0.000E+00  9  WW1      
         1        52        18  0.000E+00  9  WW2      
         1        53        18  0.000E+00  9  WW3      
       127         0                Stress Period 3     
         1       106        30 -0.391E+04  1  AF1      
         1       106        30 -0.391E+04  1  AF2      
         1       106        30 -0.391E+04  1  AF3      
         1       123        12 -0.127E+04  1  EG1      
         1       105        30  0.000E+00  1  ET1      
         1       115        17 -0.197E+04  1  FC1      
         1       115        16 -0.197E+04  1  FC2      
         1       115        16 -0.197E+04  1  FC3      
         1       115        17 -0.197E+04  1  FC4      
         1       115        17 -0.197E+04  1  FC5      
         1       118        12 -0.681E+04  1  FK1      
         1       118        12 -0.681E+04  1  FK2      
         1       118        12 -0.681E+04  1  FK3      
         1       118        12 -0.681E+04  1  FK4      
         1       118        12 -0.681E+04  1  FK5      
         1       118        12 -0.681E+04  1  FK6      
         1       118        12 -0.681E+04  1  FK7      
         1       118        12 -0.681E+04  1  FK8      
         1        32        56  0.000E+00  1  Hial_11  
         1        32        56  0.000E+00  1  Hial_12  
         1        32        56 -0.165E+05  1  Hial_13  
         1       110        21 -0.545E+04  1  HR1      
         1       110        20 -0.545E+04  1  HR2      
         1       106        26  0.000E+00  1  LC1      
         1       106        26 -0.254E+01  1  LC2      
         1       106        26 -0.650E+04  1  LC3      
         1       106        26 -0.137E+04  1  LC4      
         1       106        26 -0.818E+04  1  LC5      
         1       106        26  0.000E+00  1  LC6      
         1        35        56  0.000E+00  1  MSL_1    
         1        35        55 -0.142E+05  1  MSL_2    
         1        34        55 -0.142E+05  1  MSL_3    
         1        34        56  0.000E+00  1  MSL_4    
         1        34        55  0.000E+00  1  MSL_5    
         1        35        54 -0.283E+05  1  MSL_6    
         1        35        54  0.000E+00  1  MSL_7    
         1        35        55 -0.142E+05  1  MSL_8    
         1        32        53 -0.142E+05  1  MSU_22   
         1        31        53  0.000E+00  1  MSU_23   
         1        31        52 -0.142E+05  1  MSU_9    
         1        32        55 -0.165E+05  1  MSU_10   
         1        32        55  0.000E+00  1  MSU_14   
         1        31        55  0.000E+00  1  MSU_15   
         1        31        54  0.000E+00  1  MSU_16   
         1        32        55  0.000E+00  1  MSU_17   
         1        31        54 -0.142E+05  1  MSU_18   
         1        31        53  0.000E+00  1  MSU_19   
         1        32        54  0.000E+00  1  MSU_20   
         1        32        54  0.000E+00  1  MSU_21   
         1       101        28 -0.696E+02  1  NJ1      
         1         5        70 -0.549E+04  1  Nor_1    
         1         5        70 -0.549E+04  1  Nor_2    
         1         4        70 -0.549E+04  1  Nor_3    
         1         5        70 -0.549E+04  1  Nor_4    
         1         4        69 -0.549E+04  1  Nor_5    
         1         4        69 -0.549E+04  1  Nor_6    
         1         4        69 -0.549E+04  1  Nor_7    
         1         4        70 -0.549E+04  1  Nor_8    
         1         5        70 -0.549E+04  1  Nor_9    
         1         5        70 -0.549E+04  1  Nor_10   
         1       114        24 -0.817E+04  1  NT1      
         1        30        30 -0.590E+05  1  NW_11    
         1        31        30 -0.393E+05  1  NW_12    
         1        31        30  0.000E+00  1  NW_13    
         1        32        30  0.000E+00  1  NW_14    
         1        32        30  0.000E+00  1  NW_15    
         1        26        30 -0.590E+05  1  NW_1     
         1        27        30 -0.393E+05  1  NW_2     
         1        27        30 -0.590E+05  1  NW_3     
         1        28        30 -0.393E+05  1  NW_4     
         1        28        30 -0.590E+05  1  NW_5     
         1        28        30  0.000E+00  1  NW_6     
         1        29        31 -0.393E+05  1  NW_7     
         1        29        30  0.000E+00  1  NW_8     
         1        29        30 -0.590E+05  1  NW_9     
         1        30        30  0.000E+00  1  NW_10    
         1        59        46  0.000E+00  1  OR1      
         1        59        46 -0.230E+05  1  OR2      
         1        59        46 -0.230E+05  1  OR3      
         1        59        46  0.000E+00  1  OR4      
         1        59        46 -0.230E+05  1  OR5      
         1        59        46 -0.230E+05  1  OR6      
         1        59        46 -0.230E+05  1  OR7      
         1        59        46 -0.414E+05  1  OR8      
         1        60        46 -0.414E+05  1  OR9      
         1        60        46 -0.414E+05  1  OR10     
         1        31        56  0.000E+00  1  Pres_1   
         1        31        56  0.000E+00  1  Pres_2   
         1        31        56  0.000E+00  1  Pres_3   
         1        31        56  0.000E+00  1  Pres_4   
         1        31        56  0.000E+00  1  Pres_5   
         1        31        56  0.000E+00  1  Pres_6   
         1        31        56 -0.393E+05  1  Pres_7   
         1       106        15 -0.230E+03  1  RD1      
         1        60        41  0.000E+00  1  SC1      
         1        60        41  0.000E+00  1  SC2      
         1        61        42  0.000E+00  1  SC3      
         1        61        41 -0.384E+05  1  SC4      
         1        62        34 -0.269E+05  1  SW8      
         1        62        34 -0.269E+05  1  SW9      
         1        62        34 -0.269E+05  1  SW10     
         1        63        34 -0.384E+05  1  SW11     
         1        63        34 -0.384E+05  1  SW12     
         1        63        34  0.000E+00  1  SW13     
         1        63        33 -0.384E+05  1  SW14     
         1        61        35  0.000E+00  1  SW1      
         1        61        35  0.000E+00  1  SW2      
         1        61        35 -0.269E+05  1  SW3      
         1        62        35 -0.269E+05  1  SW4      
         1        62        35 -0.269E+05  1  SW5      
         1        62        35 -0.269E+05  1  SW6      
         1        62        34 -0.269E+05  1  SW7      
         1       109        17 -0.430E+04  1  WP1      
         1       109        17 -0.430E+04  1  WP2      
         1       109        17 -0.430E+04  1  WP3      
         1       109        17 -0.430E+04  1  WP4      
         1        19        70 -0.326E+04  1  WS_1     
         1        19        70 -0.326E+04  1  WS_2     
         1        19        69 -0.326E+04  1  WS_3     
         1        19        69 -0.326E+04  1  WS_4     
         1        19        68 -0.326E+04  1  WS_5     
         1        19        68 -0.326E+04  1  WS_6     
         1        18        69 -0.326E+04  1  WS_7     
         1        18        69 -0.326E+04  1  WS_8     
         1        52        18  0.000E+00  1  WW1      
         1        52        18  0.000E+00  1  WW2      
         1        53        18  0.000E+00  1  WW3      
       127         0                Stress Period 4     
         1       106        30 -0.391E+04  1  AF1      
         1       106        30 -0.391E+04  1  AF2      
         1       106        30 -0.391E+04  1  AF3      
         1       123        12 -0.127E+04  1  EG1      
         1       105        30  0.000E+00  1  ET1      
         1       115        17 -0.197E+04  1  FC1      
         1       115        16 -0.197E+04  1  FC2      
         1       115        16 -0.197E+04  1  FC3      
         1       115        17 -0.197E+04  1  FC4      
         1       115        17 -0.197E+04  1  FC5      
         1       118        12 -0.681E+04  1  FK1      
         1       118        12 -0.681E+04  1  FK2      
         1       118        12 -0.681E+04  1  FK3      
         1       118        12 -0.681E+04  1  FK4      
         1       118        12 -0.681E+04  1  FK5      
         1       118        12 -0.681E+04  1  FK6      
         1       118        12 -0.681E+04  1  FK7      
         1       118        12 -0.681E+04  1  FK8      
         1        32        56  0.000E+00  1  Hial_11  
         1        32        56  0.000E+00  1  Hial_12  
         1        32        56 -0.166E+05  1  Hial_13  
         1       110        21 -0.545E+04  1  HR1      
         1       110        20 -0.545E+04  1  HR2      
         1       106        26  0.000E+00  1  LC1      
         1       106        26 -0.254E+01  1  LC2      
         1       106        26 -0.650E+04  1  LC3      
         1       106        26 -0.137E+04  1  LC4      
         1       106        26 -0.818E+04  1  LC5      
         1       106        26  0.000E+00  1  LC6      
         1        35        56  0.000E+00  1  MSL_1    
         1        35        55 -0.592E+04  1  MSL_2    
         1        34        55 -0.142E+05  1  MSL_3    
         1        34        56  0.000E+00  1  MSL_4    
         1        34        55  0.000E+00  1  MSL_5    
         1        35        54 -0.284E+05  1  MSL_6    
         1        35        54  0.000E+00  1  MSL_7    
         1        35        55 -0.142E+05  1  MSL_8    
         1        32        53  0.000E+00  1  MSU_22   
         1        31        53 -0.142E+05  1  MSU_23   
         1        31        52 -0.142E+05  1  MSU_9    
         1        32        55 -0.118E+05  1  MSU_10   
         1        32        55  0.000E+00  1  MSU_14   
         1        31        55  0.000E+00  1  MSU_15   
         1        31        54  0.000E+00  1  MSU_16   
         1        32        55  0.000E+00  1  MSU_17   
         1        31        54 -0.142E+05  1  MSU_18   
         1        31        53 -0.415E+04  1  MSU_19   
         1        32        54  0.000E+00  1  MSU_20   
         1        32        54  0.000E+00  1  MSU_21   
         1       101        28 -0.696E+02  1  NJ1      
         1         5        70 -0.549E+04  1  Nor_1    
         1         5        70 -0.549E+04  1  Nor_2    
         1         4        70 -0.549E+04  1  Nor_3    
         1         5        70 -0.549E+04  1  Nor_4    
         1         4        69 -0.549E+04  1  Nor_5    
         1         4        69 -0.549E+04  1  Nor_6    
         1         4        69 -0.549E+04  1  Nor_7    
         1         4        70 -0.549E+04  1  Nor_8    
         1         5        70 -0.549E+04  1  Nor_9    
         1         5        70 -0.549E+04  1  Nor_10   
         1       114        24 -0.817E+04  1  NT1      
         1        30        30 -0.407E+05  1  NW_11    
         1        31        30 -0.395E+05  1  NW_12    
         1        31        30 -0.123E+05  1  NW_13    
         1        32        30  0.000E+00  1  NW_14    
         1        32        30 -0.123E+05  1  NW_15    
         1        26        30 -0.407E+05  1  NW_1     
         1        27        30 -0.395E+05  1  NW_2     
         1        27        30 -0.407E+05  1  NW_3     
         1        28        30 -0.407E+05  1  NW_4     
         1        28        30 -0.407E+05  1  NW_5     
         1        28        30 -0.185E+05  1  NW_6     
         1        29        31 -0.395E+05  1  NW_7     
         1        29        30  0.000E+00  1  NW_8     
         1        29        30 -0.592E+05  1  NW_9     
         1        30        30  0.000E+00  1  NW_10    
         1        59        46  0.000E+00  1  OR1      
         1        59        46 -0.232E+05  1  OR2      
         1        59        46 -0.232E+05  1  OR3      
         1        59        46  0.000E+00  1  OR4      
         1        59        46 -0.232E+05  1  OR5      
         1        59        46 -0.232E+05  1  OR6      
         1        59        46 -0.232E+05  1  OR7      
         1        59        46 -0.418E+05  1  OR8      
         1        60        46 -0.418E+05  1  OR9      
         1        60        46 -0.418E+05  1  OR10     
         1        31        56  0.000E+00  1  Pres_1   
         1        31        56  0.000E+00  1  Pres_2   
         1        31        56  0.000E+00  1  Pres_3   
         1        31        56  0.000E+00  1  Pres_4   
         1        31        56  0.000E+00  1  Pres_5   
         1        31        56  0.000E+00  1  Pres_6   
         1        31        56 -0.395E+05  1  Pres_7   
         1       106        15 -0.230E+03  1  RD1      
         1        60        41  0.000E+00  1  SC1      
         1        60        41  0.000E+00  1  SC2      
         1        61        42  0.000E+00  1  SC3      
         1        61        41 -0.137E+05  1  SC4      
         1        62        34 -0.271E+05  1  SW8      
         1        62        34 -0.271E+05  1  SW9      
         1        62        34 -0.271E+05  1  SW10     
         1        63        34 -0.387E+05  1  SW11     
         1        63        34 -0.387E+05  1  SW12     
         1        63        34  0.000E+00  1  SW13     
         1        63        33 -0.387E+05  1  SW14     
         1        61        35  0.000E+00  1  SW1      
         1        61        35  0.000E+00  1  SW2      
         1        61        35 -0.271E+05  1  SW3      
         1        62        35 -0.271E+05  1  SW4      
         1        62        35 -0.271E+05  1  SW5      
         1        62        35 -0.271E+05  1  SW6      
         1        62        34 -0.271E+05  1  SW7      
         1       109        17 -0.430E+04  1  WP1      
         1       109        17 -0.430E+04  1  WP2      
         1       109        17 -0.430E+04  1  WP3      
         1       109        17 -0.430E+04  1  WP4      
         1        19        70 -0.326E+04  1  WS_1     
         1        19        70 -0.326E+04  1  WS_2     
         1        19        69 -0.326E+04  1  WS_3     
         1        19        69 -0.326E+04  1  WS_4     
         1        19        68 -0.326E+04  1  WS_5     
         1        19        68 -0.326E+04  1  WS_6     
         1        18        69 -0.326E+04  1  WS_7     
         1        18        69 -0.326E+04  1  WS_8     
         1        52        18  0.000E+00  1  WW1      
         1        52        18  0.000E+00  1  WW2      
         1        53        18  0.000E+00  1  WW3      
       127         0                Stress Period 5     
         1       106        30 -0.391E+04  1  AF1      
         1       106        30 -0.391E+04  1  AF2      
         1       106        30 -0.391E+04  1  AF3      
         1       123        12 -0.127E+04  1  EG1      
         1       105        30  0.000E+00  1  ET1      
         1       115        17 -0.197E+04  1  FC1      
         1       115        16 -0.197E+04  1  FC2      
         1       115        16 -0.197E+04  1  FC3      
         1       115        17 -0.197E+04  1  FC4      
         1       115        17 -0.197E+04  1  FC5      
         1       118        12 -0.681E+04  1  FK1      
         1       118        12 -0.681E+04  1  FK2      
         1       118        12 -0.681E+04  1  FK3      
         1       118        12 -0.681E+04  1  FK4      
         1       118        12 -0.681E+04  1  FK5      
         1       118        12 -0.681E+04  1  FK6      
         1       118        12 -0.681E+04  1  FK7      
         1       118        12 -0.681E+04  1  FK8      
         1        32        56  0.000E+00  1  Hial_11  