# MODFLOW2000 Layer Property Flow (LPF) Package
        50  -99999.0         0
  1
  0
  1.000000e+000
 0
 0
open/close HK.ref 1.0 (FREE) -1  HYDRAULIC CONDUCTIVITY Layer   1
constant 90.   vertical K
constant 1   Primary storage
constant .2000000000       Sy Layer   1
