# MODFLOW2000 Discretization File
 1  173  93  3288  4  2
 0
         0   500.000(10E12.4)                    0     DELTA-X or C
         0   500.000(10E12.4)                    0     DELTA-Y or R
        29     1.000(93F8.2)                    -1     TOP of Model
    2.08    2.08    2.07    2.06    2.05    2.05    2.04    2.03    2.03    2.02    2.01    2.00    2.00    1.99    1.98    1.97    1.94    1.92    1.90    1.88    1.85    1.83    1.80    1.76    1.74    1.72    1.70    1.69    1.67    1.65    1.62    1.59    1.56    1.53    1.51    1.51    1.52    1.52    1.52    1.52    1.52    1.52    1.52    1.52    1.52    1.52    1.52    1.52    1.52    1.52    1.52    1.52    1.52    1.52    1.52    1.52    1.52    1.52    1.52    1.52    1.52    1.52    1.52    1.52    1.52    1.52    1.52    1.52    1.52    1.52    1.52    1.52    1.57    1.79    2.04    2.27    2.36    2.39    2.39    2.34    2.17    1.64    1.52    1.52    1.52    1.52    1.52   -0.80   -1.05   -1.05   -3.58   -7.60  -12.68
    2.07    2.07    2.06    2.06    2.05    2.04    2.03    2.03    2.02    2.01    2.01    2.00    1.99    1.98    1.97    1.95    1.93    1.91    1.89    1.87    1.84    1.81    1.76    1.73    1.70    1.67    1.67    1.65    1.64    1.62    1.60    1.57    1.55    1.52    1.49    1.48    1.49    1.50    1.51    1.52    1.52    1.52    1.52    1.52    1.52    1.52    1.52    1.52    1.52    1.52    1.52    1.52    1.52    1.52    1.52    1.52    1.52    1.52    1.52    1.52    1.52    1.52    1.52    1.54    1.54    1.52    1.52    1.52    1.77    1.77    1.78    1.78    1.52    1.63    1.87    2.04    2.13    2.16    2.16    2.07    1.94    2.78    2.78    1.52    1.52    1.52    1.52   -0.80   -0.80   -1.05   -3.82   -7.93  -13.14
    2.07    2.07    2.06    2.05    2.04    2.03    2.03    2.02    2.01    2.01    2.00    1.99    1.98    1.97    1.96    1.95    1.93    1.91    1.89    1.86    1.84    1.79    1.73    1.69    1.66    1.63    1.62    1.62    1.60    1.59    1.57    1.55    1.53    1.50    1.48    1.45    1.46    1.47    1.48    1.49    1.49    1.50    1.51    1.52    1.52    1.52    1.52    1.52    1.52    1.52    1.52    1.52    1.52    1.52    1.52    1.52    1.52    1.52    1.52    1.52    1.52    1.52    1.52    1.70    2.11    2.11    2.64    3.05    3.05    3.05    3.05    3.05    2.83    1.54    1.71    1.81    1.90    1.94    1.94    1.83    1.70    3.05    3.05    1.58    1.52    1.52   -0.80   -0.80   -0.80   -1.05   -4.21   -8.40  -13.75
    2.07    2.07    2.06    2.05    2.04    2.03    2.02    2.01    2.01    2.00    1.99    1.98    1.98    1.96    1.95    1.94    1.92    1.90    1.88    1.86    1.84    1.79    1.72    1.65    1.62    1.59    1.58    1.58    1.57    1.55    1.54    1.52    1.51    1.49    1.46    1.44    1.43    1.44    1.45    1.45    1.46    1.47    1.48    1.49    1.50    1.51    1.51    1.52    1.52    1.52    1.52    1.52    1.52    1.52    1.52    1.52    1.52    1.52    1.52    1.52    1.52    1.52    1.52    1.80    2.21    2.61    3.05    3.05    3.05    3.05    3.05    3.05    3.05    3.05    1.52    1.59    1.68    1.71    1.71    1.61    2.41    3.05    3.05    1.58    1.52    1.52   -0.80   -0.80   -0.80   -1.29   -4.62   -8.80  -13.72
    2.06    2.06    2.05    2.04    2.03    2.02    2.02    2.01    2.00    1.99    1.99    1.97    1.96    1.95    1.94    1.93    1.91    1.89    1.88    1.86    1.84    1.81    1.71    1.65    1.58    1.55    1.54    1.54    1.54    1.52    1.52    1.50    1.49    1.47    1.45    1.43    1.40    1.41    1.41    1.42    1.43    1.44    1.45    1.46    1.47    1.47    1.48    1.49    1.50    1.52    1.52    1.52    1.52    1.52    1.52    1.52    1.52    1.52    1.52    1.52    1.52    1.52    1.52    1.90    2.31    2.71    3.05    3.05    3.05    3.05    3.05    3.05    3.05    3.05    2.93    1.68    1.98    2.44    2.78    2.78    3.05    3.05    3.05    1.52    1.52    1.52   -1.05   -0.80   -0.80   -1.36   -4.65   -9.00  -13.72
    2.06    2.06    2.05    2.04    2.03    2.02    2.01    2.00    1.99    1.99    1.98    1.96    1.94    1.93    1.92    1.91    1.90    1.89    1.87    1.85    1.83    1.82    1.70    1.60    1.53    1.50    1.49    1.49    1.50    1.50    1.50    1.47    1.46    1.45    1.43    1.41    1.39    1.37    1.38    1.39    1.40    1.41    1.42    1.43    1.43    1.44    1.45    1.46    1.50    1.52    1.52    1.52    1.52    1.52    1.52    1.52    1.52    1.52    1.52    1.52    1.52    1.52    1.60    2.00    2.41    2.81    2.91    3.05    3.05    3.05    3.05    3.05    3.05    3.05    3.05    3.05    3.05    3.05    3.05    3.05    3.05    3.05    2.49    1.52    1.52    1.52   -0.80    1.00    1.00   -1.36   -4.62   -8.93  -13.72
    2.05    2.05    2.04    2.03    2.02    2.02    2.01    2.00    1.99    1.98    1.96    1.94    1.93    1.91    1.90    1.90    1.89    1.88    1.86    1.84    1.83    1.82    1.67    1.55    1.49    1.46    1.45    1.46    1.48    1.48    1.48    1.45    1.43    1.42    1.41    1.39    1.37    1.34    1.35    1.36    1.37    1.38    1.39    1.39    1.40    1.41    1.43    1.46    1.50    1.52    1.52    1.52    1.52    1.52    1.52    1.52    1.52    1.52    1.52    1.52    1.52    1.52    1.70    2.11    2.51    2.81    2.81    2.78    3.05    3.05    3.05    3.05    3.05    3.05    3.05    3.05    3.05    3.05    3.05    3.05    3.05    3.05    2.60    1.92    1.52   -0.80   -0.80    1.00    1.00   -1.35   -4.51   -8.70  -13.38
    2.05    2.05    2.04    2.03    2.02    2.01    2.00    1.99    1.98    1.97    1.95    1.93    1.91    1.89    1.89    1.88    1.87    1.87    1.85    1.83    1.83    1.78    1.65    1.52    1.47    1.42    1.41    1.43    1.45    1.46    1.46    1.43    1.40    1.40    1.38    1.37    1.35    1.33    1.32    1.33    1.34    1.35    1.35    1.36    1.37    1.40    1.44    1.49    1.52    1.52    1.52    1.52    1.52    1.52    1.52    1.52    1.52    1.52    1.52    1.52    1.52    1.52    1.80    2.21    2.53    2.63    2.63    2.55    2.75    3.05    3.05    3.05    3.05    3.05    3.05    3.05    3.05    3.05    3.05    3.05    3.05    3.05    2.60    1.92    1.52   -0.80   -0.80    1.00    1.00    0.00    0.00    0.00    0.00
    2.05    2.05    2.04    2.02    2.01    2.00    2.00    1.99    1.97    1.95    1.93    1.91    1.90    1.88    1.87    1.86    1.85    1.85    1.84    1.83    1.82    1.76    1.63    1.54    1.47    1.42    1.39    1.40    1.42    1.44    1.44    1.41    1.36    1.36    1.36    1.34    1.33    1.31    1.29    1.30    1.31    1.31    1.32    1.35    1.39    1.43    1.47    1.52    1.52    1.52    1.52    1.52    1.52    1.52    1.52    1.52    1.52    1.52    1.52    1.52    1.52    1.52    1.90    2.31    2.53    2.53    2.45    2.37    2.37    2.82    3.04    3.04    2.80    3.04    3.05    3.05    3.05    3.05    3.05    3.05    3.05    3.05   -4.00    1.52    1.52   -4.00   -4.00    1.00    1.00    0.00    0.00    0.00    0.00
    2.05    2.05    2.03    2.02    2.01    2.00    1.99    1.98    1.96    1.94    1.92    1.90    1.88    1.86    1.85    1.84    1.83    1.83    1.82    1.80    1.78    1.72    1.63    1.55    1.50    1.44    1.37    1.38    1.40    1.41    1.41    1.39    1.34    1.33    1.33    1.32    1.30    1.29    1.27    1.26    1.27    1.29    1.33    1.38    1.42    1.46    1.51    1.52    1.52    1.52    1.52    1.52    1.52    1.52    1.52    1.52    1.52    1.52    1.52    1.52    1.52    1.60    2.01    2.31    2.35    2.35    2.27    2.20    2.12    2.48    2.48    2.25    2.21    2.42    2.72    3.05    3.05    3.05    3.05    3.05    3.05    3.05   -4.00   -4.00   -4.00   -4.00   -1.36    0.51    0.51    0.00    0.00    0.00    0.00
    2.04    2.04    2.03    2.02    2.01    2.00    1.99    1.97    1.95    1.92    1.90    1.88    1.87    1.85    1.83    1.82    1.80    1.79    1.78    1.76    1.75    1.68    1.60    1.56    1.52    1.46    1.39    1.37    1.37    1.39    1.39    1.37    1.32    1.29    1.29    1.29    1.28    1.26    1.25    1.23    1.27    1.32    1.37    1.41    1.45    1.50    1.52    1.52    1.52    1.52    1.52    1.52    1.52    1.52    1.52    1.52    1.52    1.52    1.52    1.52    1.52    1.70    2.11    2.25    2.25    2.18    2.10    2.02    1.92    1.75    1.75    1.52    1.58    1.79    2.26    2.89    3.05    3.05    3.05    3.05    3.05    2.96    1.95    1.52   -0.80   -0.80   -0.80    0.51    0.51    0.00    0.00    0.00    0.00
    2.04    2.04    2.03    2.02    2.01    1.99    1.98    1.96    1.94    1.91    1.89    1.87    1.85    1.83    1.81    1.79    1.77    1.76    1.75    1.72    1.71    1.65    1.61    1.56    1.52    1.47    1.41    1.37    1.37    1.37    1.37    1.35    1.30    1.26    1.26    1.26    1.25    1.24    1.22    1.22    1.27    1.32    1.37    1.44    1.48    1.52    1.52    1.52    1.52    1.52    1.52    1.52    1.52    1.52    1.52    1.52    1.52    1.52    1.52    1.52    1.52    1.80    2.11    2.11    2.08    2.00    1.92    1.84    1.71    1.53    1.99    1.99    1.96    1.60    1.85    2.22    2.70    3.05    3.05    3.05    3.05    2.76    1.95    1.52   -0.80   -0.80   -0.80   -0.80   -0.83    0.00    0.00    0.00    0.00
    2.04    2.04    2.03    2.02    2.00    1.99    1.98    1.96    1.93    1.90    1.88    1.86    1.84    1.81    1.79    1.77    1.74    1.72    1.71    1.69    1.68    1.67    1.62    1.58    1.54    1.48    1.42    1.37    1.37    1.37    1.37    1.31    1.23    1.22    1.22    1.22    1.22    1.22    1.22    1.23    1.28    1.34    1.39    1.45    1.50    1.52    1.52    1.52    1.52    1.52    1.52    1.52    1.52    1.52    1.52    1.52    1.52    1.52    1.52    1.52    1.52    1.88    1.98    1.98    1.90    1.82    1.74    1.66    1.53    2.66    2.79    2.79    2.46    1.82    1.52    1.52    3.05    3.05    3.05    3.05    3.05    2.69    1.72    1.52   -0.80   -0.80   -0.80   -0.76   -0.76    0.00    0.00    0.00    0.00
    2.04    2.04    2.03    2.01    2.00    1.99    1.98    1.95    1.92    1.90    1.87    1.85    1.82    1.79    1.77    1.75    1.72    1.70    1.68    1.68    1.68    1.68    1.65    1.61    1.56    1.50    1.44    1.38    1.37    1.37    1.37    1.34    1.27    1.22    1.22    1.22    1.22    1.22    1.22    1.25    1.29    1.34    1.39    1.45    1.50    1.52    1.52    1.52    1.52    1.52    1.52    1.52    1.52    1.52    1.52    1.52    1.52    1.52    1.52    1.52    1.60    1.88    1.88    1.80    1.72    1.64    1.56    1.52    2.83    3.05    3.05    3.05    2.79    2.05    1.52    2.48    3.05    3.05    3.05    3.05    3.05    2.69    1.66    1.52   -0.80   -0.80   -1.05   -0.76   -0.76    0.00    0.00    0.00    0.00
    2.03    2.03    2.02    2.01    2.00    1.99    1.97    1.94    1.92    1.89    1.87    1.84    1.81    1.78    1.75    1.73    1.70    1.68    1.68    1.68    1.68    1.68    1.66    1.61    1.56    1.50    1.44    1.38    1.37    1.37    1.37    1.36    1.30    1.26    1.22    1.22    1.22    1.22    1.22    1.25    1.30    1.36    1.40    1.45    1.50    1.52    1.52    1.52    1.52    1.52    1.52    1.52    1.52    1.52    1.52    1.52    1.52    1.52    1.52    1.52    1.60    1.70    1.70    1.62    1.54    1.52    1.52    2.27    3.05    3.05    3.05    3.05    3.05    2.51    1.52    2.48    3.05    3.05    3.05    3.05   -4.00    1.64    1.64   -0.80   -1.05    0.00    0.00   -1.81   -2.70    0.00    0.00    0.00    0.00
    2.03    2.03    2.02    2.01    2.00    1.98    1.96    1.94    1.91    1.89    1.86    1.84    1.81    1.77    1.74    1.71    1.68    1.68    1.68    1.68    1.68    1.68    1.66    1.61    1.56    1.51    1.39    1.37    1.37    1.37    1.37    1.37    1.31    1.26    1.22    1.22    1.22    1.22    1.22    1.24    1.30    1.36    1.40    1.46    1.51    1.52    1.52    1.52    1.52    1.52    1.52    1.52    1.52    1.52    1.52    1.52    1.52    1.52    1.52    1.52    1.60    1.60    1.52    1.52    1.52    1.52    2.66    3.72    3.72    3.31    3.05    3.05    3.05    3.05    1.52    2.16    3.05    3.05    3.05    3.05   -4.00   -4.00   -4.00   -1.44    0.00    0.00   -1.48    2.93    2.93    0.00    0.00    0.00    0.00
    2.03    2.03    2.02    2.01    1.99    1.98    1.96    1.93    1.91    1.88    1.86    1.83    1.80    1.76    1.73    1.70    1.68    1.68    1.68    1.68    1.68    1.68    1.66    1.61    1.56    1.51    1.42    1.40    1.37    1.37    1.37    1.37    1.31    1.25    1.22    1.22    1.22    1.22    1.22    1.23    1.29    1.35    1.40    1.46    1.51    1.52    1.52    1.52    1.52    1.52    1.52    1.52    1.52    1.52    1.52    1.52    1.52    1.52    1.52    1.52    1.52    1.52    1.52    1.52    1.53    2.24    4.10    4.49    4.49    3.93    3.36    3.05    3.05    3.05    1.59    2.21    2.96    3.05    3.05    3.05    2.90    1.52   -4.00    0.00    0.00   -0.80   -0.80    2.93    2.93    0.00    0.00    0.00    0.00
    2.03    2.03    2.02    2.00    1.99    1.98    1.95    1.93    1.90    1.88    1.85    1.83    1.79    1.76    1.72    1.69    1.68    1.68    1.68    1.68    1.68    1.68    1.68    1.64    1.56    1.50    1.46    1.42    1.37    1.37    1.37    1.37    1.31    1.24    1.22    1.22    1.22    1.22    1.22    1.22    1.28    1.33    1.39    1.44    1.48    1.52    1.52    1.52    1.52    1.52    1.52    1.52    1.52    1.52    1.52    1.52    1.52    1.52    1.52    1.52    1.52    1.52    1.52    1.52    1.53    2.24    4.11    4.49    4.49    4.14    3.84    3.41    3.05    3.05    2.28    2.21    2.66    3.05    3.05    3.05    2.90    1.52   -1.05    0.00    0.00   -0.80   -0.80    1.93    1.93    0.00    0.00    0.00    0.00
    2.03    2.03    2.01    2.00    1.99    1.97    1.95    1.92    1.90    1.87    1.85    1.82    1.79    1.75    1.72    1.68    1.68    1.68    1.68    1.68    1.68    1.68    1.68    1.64    1.56    1.50    1.46    1.42    1.37    1.34    1.34    1.31    1.24    1.22    1.22    1.22    1.22    1.22    1.22    1.22    1.23    1.28    1.33    1.37    1.45    1.52    1.52    1.52    1.52    1.52    1.52    1.52    1.52    1.52    1.52    1.52    1.52    1.52    1.52    1.52    1.52    1.52    1.52    1.52    1.52    2.22    4.11    4.45    4.45    4.14    3.84    3.42    3.14    3.05    3.05    1.95    2.35    2.76    3.05    3.05    1.52   -1.05    0.00    0.00    1.00    1.00   -0.80    1.93    1.93    0.00    0.00    0.00    0.00
    2.02    2.02    2.01    2.00    1.99    1.97    1.94    1.92    1.89    1.87    1.85    1.82    1.79    1.75    1.72    1.68    1.68    1.68    1.68    1.68    1.68    1.68    1.68    1.63    1.52    1.50    1.46    1.42    1.37    1.30    1.27    1.22    1.22    1.22    1.22    1.22    1.22    1.22    1.22    1.22    1.22    1.23    1.26    1.32    1.35    1.44    1.52    1.52    1.52    1.52    1.52    1.52    1.52    1.52    1.52    1.52    1.52    1.52    1.52    1.52    1.52    1.52    1.52    1.52    1.52    1.52    3.50    4.24    4.24    3.98    3.70    3.42    3.14    3.05    3.05    2.38    2.20    2.77    3.05    3.05   -1.05    0.00    0.00    0.00    2.48    2.48    1.34    1.93    1.93    0.00    0.00    0.00    0.00
    2.02    2.02    2.01    2.00    1.99    1.96    1.94    1.92    1.89    1.87    1.85    1.82    1.79    1.75    1.72    1.68    1.68    1.68    1.68    1.68    1.68    1.68    1.68    1.63    1.51    1.48    1.46    1.42    1.37    1.30    1.22    1.20    1.21    1.22    1.22    1.22    1.22    1.22    1.22    1.22    1.22    1.22    1.22    1.22    1.22    1.22    1.47    1.52    1.52    1.52    1.52    1.52    1.52    1.52    1.52    1.52    1.52    1.52    1.52    1.52    1.52    1.52    1.52    1.52    1.52    1.52    1.94    3.56    3.67    3.67    3.39    3.11    3.05    3.05    3.05    3.05    2.02    2.77    2.77    2.19   -1.05    0.00    0.00    0.00    2.48    2.48    1.34    1.93    1.93    0.00    0.00    0.00    0.00
    2.02    2.02    2.01    2.00    1.98    1.96    1.94    1.92    1.89    1.87    1.85    1.82    1.79    1.75    1.72    1.68    1.68    1.68    1.68    1.68    1.68    1.68    1.68    1.63    1.51    1.47    1.44    1.41    1.37    1.30    1.13    1.09    1.13    1.22    1.22    1.22    1.22    1.22    1.22    1.22    1.22    1.22    1.22    1.22    1.22    1.27    1.41    1.52    1.52    1.52    1.52    1.52    1.52    1.52    1.52    1.52    1.52    1.52    1.52    1.52    1.52    1.52    1.52    1.52    1.52    1.52    1.52    2.21    3.05    3.08    3.08    3.05    3.05    3.05    3.05    3.05    2.38   -5.00   -5.00   -5.00    0.00    0.00    0.00    0.00    0.00    0.00    0.00    0.00   -1.05    0.00    0.00    0.00    0.00
    2.02    2.02    2.01    2.00    1.98    1.96    1.94    1.92    1.89    1.87    1.85    1.82    1.78    1.75    1.72    1.68    1.68    1.68    1.68    1.68    1.68    1.68    1.68    1.63    1.50    1.47    1.44    1.41    1.37    1.28    1.00    0.98    1.09    1.22    1.22    1.22    1.22    1.22    1.22    1.22    1.22    1.22    1.22    1.22    1.22    1.30    1.42    1.52    1.52    1.52    1.52    1.52    1.52    1.52    1.52    1.52    1.52    1.52    1.52    1.52    1.52    1.52    1.52    1.52    1.52    1.52    1.52    1.52    2.32    2.89    3.05    3.05    3.05    3.05    3.05    3.05    2.40    1.75    1.52    0.00    0.00    0.00    0.00    0.00    0.00    0.00    0.00    1.00    1.00    0.00    0.00    0.00    0.00
    2.02    2.02    2.00    1.99    1.98    1.96    1.94    1.91    1.89    1.87    1.84    1.82    1.78    1.75    1.72    1.68    1.68    1.68    1.68    1.68    1.68    1.68    1.66    1.56    1.50    1.47    1.44    1.40    1.37    1.27    0.91    0.91    1.00    1.17    1.22    1.22    1.22    1.22    1.22    1.22    1.22    1.22    1.23    1.23    1.22    1.30    1.42    1.52    1.52    1.52    1.52    1.52    1.52    1.52    1.52    1.52    1.52    1.52    1.52    1.52    1.52    1.52    1.52    1.52    1.52    1.52    1.52    1.52    1.53    2.10    2.52    3.05    3.05    3.05    3.05    3.05    2.40    1.75    1.52    0.00    0.00    0.00    0.00    0.00   -0.80   -0.80   -1.19    1.00    1.00    0.00    0.00    0.00    0.00
    2.02    2.02    2.01    2.00    1.99    1.97    1.94    1.92    1.89    1.87    1.84    1.82    1.78    1.75    1.72    1.68    1.68    1.68    1.68    1.68    1.68    1.65    1.58    1.52    1.49    1.46    1.43    1.40    1.36    1.25    0.91    0.91    0.92    1.12    1.22    1.22    1.22    1.22    1.23    1.24    1.25    1.26    1.27    1.27    1.24    1.31    1.40    1.50    1.52    1.52    1.52    1.52    1.52    1.52    1.52    1.52    1.52    1.52    1.52    1.52    1.52    1.52    1.52    1.52    1.52    1.52    1.52    1.52    1.52    1.52    1.81    2.57    3.05    3.05    3.05    2.62    1.98    1.52    1.52    0.00    0.00    0.00    0.00   -1.21   -0.80    1.00    1.00   -0.80    1.38    0.00    0.00    0.00    0.00
    2.02    2.02    2.01    2.00    1.99    1.97    1.95    1.92    1.90    1.87    1.85    1.82    1.78    1.75    1.72    1.68    1.68    1.68    1.68    1.68    1.68    1.63    1.55    1.51    1.48    1.45    1.43    1.40    1.36    1.24    0.91    0.91    0.97    1.14    1.22    1.23    1.25    1.26    1.27    1.28    1.30    1.31    1.31    1.31    1.29    1.35    1.42    1.51    1.52    1.52    1.52    1.52    1.52    1.52    1.52    1.52    1.52    1.52    1.52    1.52    1.52    1.52    1.52    1.52    1.52    1.52    1.52    1.52    1.52    1.52    1.52    1.60    2.37    2.65    2.65    2.31    1.56    1.52   -1.05    0.00    0.00    0.00    0.00   -1.22   -1.22    1.00    1.00   -0.80    1.38    0.00    0.00    0.00    0.00
    2.02    2.02    2.01    2.00    1.99    1.98    1.95    1.93    1.91    1.88    1.85    1.82    1.79    1.76    1.72    1.69    1.68    1.68    1.68    1.68    1.68    1.62    1.55    1.51    1.48    1.45    1.42    1.39    1.35    1.24    0.88    1.03    1.13    1.22    1.26    1.28    1.29    1.30    1.32    1.33    1.34    1.35    1.35    1.35    1.34    1.40    1.46    1.52    1.52    1.52    1.52    1.52    1.52    1.52    1.52    1.52    1.52    1.52    1.52    1.52    1.52    1.52    1.52    1.52    1.52    1.52    1.52    1.52    1.52    1.52    1.52    1.52    1.52    1.52    1.52   -4.00   -4.00   -4.00   -4.00    0.00    0.00    0.00    0.00    0.00    0.00    0.00    0.00   -1.05    0.70    0.00    0.00    0.00    0.00
    2.02    2.02    2.01    2.00    1.99    1.98    1.97    1.94    1.92    1.89    1.86    1.83    1.80    1.76    1.73    1.69    1.68    1.68    1.68    1.67    1.65    1.62    1.55    1.51    1.48    1.45    1.42    1.39    1.33    1.24    0.98    1.13    1.23    1.26    1.29    1.32    1.33    1.35    1.36    1.37    1.38    1.40    1.40    1.39    1.39    1.45    1.50    1.52    1.52    1.52    1.52    1.52    1.52    1.52    1.52    1.52    1.52    1.52    1.52    1.52    1.52    1.52    1.52    1.52    1.52    1.52    1.52    1.52    1.52    1.52    1.52    1.52    1.52    1.52    1.52    1.52    1.52   -1.05   -1.05    0.00    0.00    0.00    0.00    0.00    0.00    0.00    2.14    2.14   -0.80    0.00    0.00    0.00    0.00
    2.01    2.01    2.00    1.99    1.98    1.98    1.98    1.96    1.93    1.90    1.87    1.84    1.80    1.77    1.73    1.69    1.68    1.68    1.67    1.65    1.63    1.60    1.56    1.52    1.48    1.45    1.41    1.38    1.31    1.23    1.10    1.22    1.27    1.30    1.33    1.35    1.37    1.39    1.40    1.42    1.43    1.44    1.44    1.44    1.44    1.49    1.52    1.52    1.52    1.52    1.52    1.52    1.52    1.52    1.52    1.52    1.52    1.52    1.52    1.52    1.52    1.52    1.52    1.52    1.52    1.52    1.52    1.52    1.52    1.52    1.52    1.52    1.52    1.52    2.78    2.78    2.74   -1.05    0.00    0.00    0.00    0.00    0.00    0.00    0.00    0.00    2.14    2.14   -0.73    0.00    0.00    0.00    0.00
    2.00    2.00    1.99    1.99    1.98    1.98    1.98    1.97    1.94    1.90    1.87    1.84    1.81    1.77    1.73    1.70    1.68    1.68    1.65    1.63    1.61    1.58    1.56    1.52    1.49    1.45    1.42    1.38    1.31    1.24    1.22    1.23    1.29    1.34    1.37    1.39    1.41    1.43    1.44    1.46    1.47    1.48    1.49    1.49    1.50    1.52    1.52    1.52    1.52    1.52    1.52    1.52    1.52    1.52    1.52    1.52    1.52    1.52    1.52    1.52    1.52    1.52    1.52    1.52    1.52    1.52    1.52    1.52    1.52    1.52    1.52    1.52    1.52    1.52    4.26    4.57    4.57    0.00    0.00    0.00    0.00    0.00    0.00    0.00    0.00    0.00   -1.05   -0.73   -0.73    0.00    0.00    0.00    0.00
    2.00    2.00    1.99    1.98    1.98    1.98    1.98    1.98    1.95    1.92    1.89    1.85    1.81    1.77    1.73    1.70    1.68    1.67    1.65    1.62    1.60    1.58    1.56    1.53    1.49    1.46    1.42    1.39    1.31    1.24    1.22    1.24    1.31    1.37    1.42    1.44    1.45    1.47    1.48    1.50    1.51    1.52    1.52    1.52    1.52    1.52    1.52    1.52    1.52    1.52    1.52    1.52    1.52    1.52    1.52    1.52    1.52    1.52    1.52    1.52    1.52    1.52    1.52    1.52    1.52    1.52    1.52    1.52    1.52    1.52    1.52    1.52    1.52    2.55    4.26    4.57    4.57   -1.05    0.00    0.00    0.00    0.00    0.00    0.00    0.00    0.00    0.24    0.24   -0.80    0.00    0.00    0.00    0.00
    1.99    1.99    1.98    1.98    1.98    1.98    1.98    1.98    1.96    1.93    1.89    1.85    1.81    1.77    1.73    1.69    1.68    1.68    1.66    1.64    1.61    1.59    1.56    1.53    1.50    1.46    1.43    1.39    1.33    1.24    1.22    1.26    1.31    1.38    1.45    1.48    1.50    1.52    1.52    1.52    1.52    1.52    1.52    1.52    1.52    1.52    1.52    1.52    1.52    1.52    1.52    1.52    1.52    1.52    1.52    1.52    1.52    1.52    1.52    1.52    1.52    1.52    1.52    1.52    1.52    1.52    1.52    1.52    1.52    1.52    1.52    2.01    2.35    3.61    4.57    4.57    4.31   -1.05    0.00    0.00    0.00    0.00    0.00    0.00    0.00   -1.05    1.00    1.00   -0.80    0.00    0.00    0.00    0.00
    1.98    1.98    1.98    1.98    1.98    1.98    1.98    1.98    1.96    1.93    1.89    1.85    1.81    1.77    1.73    1.69    1.68    1.68    1.67    1.65    1.63    1.60    1.57    1.54    1.51    1.47    1.43    1.40    1.34    1.27    1.22    1.28    1.40    1.45    1.49    1.52    1.52    1.52    1.52    1.52    1.52    1.52    1.52    1.52    1.52    1.52    1.52    1.52    1.52    1.52    1.52    1.52    1.52    1.52    1.52    1.52    1.52    1.52    1.52    1.52    1.52    1.52    1.52    1.52    1.52    1.52    1.52    1.52    1.52    1.52    1.52    2.26    3.18    3.94    4.57    4.57    3.66   -1.05    0.00    0.00    0.00    0.00    0.00    0.00    0.00   -0.80    1.00    1.00   -0.80    0.00    0.00    0.00    0.00
    1.98    1.98    1.98    1.98    1.98    1.98    1.98    1.98    1.96    1.93    1.89    1.85    1.81    1.77    1.73    1.69    1.68    1.68    1.68    1.66    1.63    1.60    1.57    1.54    1.51    1.47    1.43    1.40    1.35    1.28    1.28    1.37    1.47    1.52    1.52    1.52    1.52    1.52    1.52    1.52    1.52    1.52    1.52    1.52    1.52    1.52    1.52    1.52    1.52    1.52    1.52    1.52    1.52    1.52    1.52    1.52    1.52    1.52    1.52    1.52    1.52    1.52    1.52    1.52    1.52    1.52    1.52    1.52    1.52    1.52    1.52    2.48    3.44    4.33    4.57    4.57   -1.05    0.00    0.00    0.00    0.00    0.00    0.00    0.00   -0.87    0.55    1.00    1.00   -0.80    0.00    0.00    0.00    0.00
    1.98    1.98    1.98    1.98    1.98    1.98    1.98    1.98    1.96    1.93    1.89    1.85    1.81    1.77    1.73    1.69    1.68    1.68    1.68    1.66    1.63    1.60    1.57    1.54    1.50    1.47    1.43    1.39    1.35    1.37    1.39    1.47    1.52    1.52    1.52    1.52    1.52    1.52    1.52    1.52    1.52    1.52    1.52    1.52    1.52    1.52    1.52    1.52    1.52    1.52    1.52    1.52    1.52    1.52    1.52    1.52    1.52    1.52    1.52    1.52    1.52    1.52    1.52    1.52    1.52    1.52    1.52    1.52    1.52    1.52    1.74    2.70    3.66    4.57    4.57    4.07    0.00    0.00    0.00    0.00    0.00    0.00    0.00   -1.37   -0.87    0.72    1.00    1.00   -1.09    0.00    0.00    0.00    0.00
    1.98    1.98    1.98    1.98    1.98    1.98    1.98    1.98    1.96    1.92    1.88    1.85    1.81    1.77    1.73    1.69    1.68    1.68    1.68    1.68    1.64    1.59    1.56    1.53    1.49    1.44    1.40    1.40    1.44    1.47    1.51    1.52    1.52    1.52    1.52    1.52    1.52    1.52    1.52    1.52    1.52    1.52    1.52    1.52    1.52    1.52    1.52    1.52    1.52    1.52    1.52    1.52    1.52    1.52    1.52    1.52    1.52    1.52    1.52    1.52   -6.00   -6.00    1.52    1.52    1.52    1.52    1.52    1.52    1.52    1.52    2.00    3.11    4.16    4.57    4.57    3.64    0.00    0.00    0.00    0.00    0.00    0.00    0.00    0.00   -1.28    1.00    1.00    1.00   -1.05    0.00    0.00    0.00    0.00
    1.98    1.98    1.98    1.98    1.98    1.98    1.98    1.98    1.95    1.92    1.88    1.85    1.82    1.78    1.74    1.70    1.68    1.68    1.68    1.68    1.68    1.64    1.54    1.50    1.47    1.41    1.40    1.42    1.46    1.49    1.52    1.52    1.52    1.52    1.52    1.52    1.52    1.52    1.52    1.52    1.52    1.52    1.52    1.52    1.52    1.52    1.52    1.52    1.52    1.52    1.52    1.52    1.52    1.52    1.52    1.52    1.52    1.52    1.52    1.52    1.52   -6.00   -6.00    1.52    1.52    1.52    1.52    1.52    1.52    1.52    2.48    3.55    4.57    4.57    4.57    3.18    0.00    0.00    0.00    0.00    0.00    0.00    0.00    0.00   -1.05    1.00    1.00    0.76    0.00    0.00    0.00    0.00    0.00
    1.98    1.98    1.98    1.98    1.98    1.98    1.98    1.98    1.95    1.92    1.89    1.85    1.82    1.78    1.75    1.72    1.69    1.68    1.68    1.68    1.68    1.64    1.54    1.52    1.45    1.40    1.42    1.44    1.47    1.50    1.52    1.52    1.52    1.52    1.52    1.52    1.52    1.52    1.52    1.52    1.52    1.52    1.52    1.52    1.52    1.52    1.52    1.52    1.52    1.52    1.52    1.52    1.52    1.52    1.52    1.52    1.52    1.52    1.52    1.52    1.52   -6.00   -6.00   -6.00    1.52    1.52    1.52    1.52    1.52    1.52    2.48    3.56    4.57    4.57    4.57    3.03    0.00    0.00    0.00    0.00    0.00    0.00    0.00    0.00   -1.05    1.00    1.00   -1.05    0.00    0.00    0.00    0.00    0.00
    1.98    1.98    1.98    1.98    1.98    1.98    1.98    1.98    1.95    1.92    1.89    1.86    1.83    1.79    1.76    1.73    1.71    1.68    1.68    1.68    1.68    1.65    1.58    1.52    1.45    1.41    1.43    1.46    1.48    1.51    1.52    1.52    1.52    1.52    1.52    1.52    1.52    1.52    1.52    1.52    1.52    1.52    1.52    1.52    1.52    1.52    1.52    1.52    1.52    1.52    1.52    1.52    1.52    1.52    1.52    1.52    1.52    1.52    1.52    1.52   -6.00   -6.00   -6.00   -6.00   -6.00   -6.00    1.52    1.52    1.52    1.52    2.38    3.56    4.57    4.57    4.57    2.99    0.00    0.00    0.00    0.00    0.00    0.00    0.00    0.00   -0.80    1.00    1.00   -1.05    0.00    0.00    0.00    0.00    0.00