# MODFLOW2000 Well Package
PARAMETER  0  0         # Item 1: NPWEL MXL
         2        50    # Item 2: MXACTW IWELCB
         1         0                Stress Period 1
         3        41         9 -6.000E+03          1
         2         0                Stress Period 2
         3        41         9 -6.000E+03          1
         3        33        25 -1.000E+03          1
         2         0                Stress Period 3
         3        41         9 -6.000E+03          1
         3        33        25 -2.000E+03          1
         2         0                Stress Period 4
         3        41         9 -6.000E+03          1
         3        33        25 -4.000E+03          1
         2         0                Stress Period 5
         3        41         9 -6.000E+03          1
         3        33        25 -5.000E+03          1
         2         0                Stress Period 6
         3        41         9 -6.000E+03          1
         3        33        25 -6.000E+03          1
         2         0                Stress Period 7
         3        41         9 -6.000E+03          1
         3        33        25 -7.000E+03          1
         2         0                Stress Period 8
         3        41         9 -6.000E+03          1
         3        33        25 -4.000E+03          1
         2         0                Stress Period 9
         3        41         9 -6.000E+03          1
         3        33        25 -2.000E+03          1
         2         0                Stress Period 10
         3        41         9 -6.000E+03          1
         3        33        25 -1.000E+03          1
