# MODFLOW2000 Layer Property Flow (LPF) Package
        50  -1.000000e+030         0
  1  1  1
  0  0  0
  -1.000000e+000  -1.000000e+000  -1.000000e+000
 1 1 1
 0 0 0
 INTERNAL     1.000  (10e12.4)    0 HY Layer   1
  1.7600e+01  1.6734e+01  1.6581e+01  1.5370e+01  1.6393e+01  1.5482e+01  1.5454e+01  1.5490e+01  1.4543e+01  1.4923e+01
  1.6741e+01  1.5697e+01  1.5897e+01  1.5725e+01  1.4914e+01  1.4126e+01  1.4515e+01  1.4888e+01  1.3589e+01  1.1884e+01
  1.1762e+01  1.0365e+01  1.0838e+01  9.2433e+00  7.7762e+00  8.1254e+00  7.2293e+00  7.0696e+00  6.8100e+00  7.7375e+00
  8.8823e+00  1.0393e+01  1.2525e+01  1.3184e+01  1.3924e+01  1.3851e+01  1.3273e+01  1.3132e+01  1.1710e+01  1.0990e+01
  1.1908e+01  1.0726e+01  9.8105e+00  1.0839e+01  1.0162e+01  9.1868e+00  8.5485e+00  8.8321e+00  9.2156e+00  9.3383e+00
  1.7548e+01  1.6011e+01  1.7222e+01  1.6477e+01  1.6187e+01  1.4683e+01  1.4358e+01  1.6231e+01  1.7375e+01  1.6097e+01
  1.6268e+01  1.6678e+01  1.5890e+01  1.4556e+01  1.2864e+01  1.4640e+01  1.4512e+01  1.3131e+01  1.2674e+01  1.0907e+01
  9.5028e+00  1.0100e+01  9.0319e+00  8.7769e+00  7.9390e+00  8.3737e+00  8.3338e+00  8.4763e+00  7.3342e+00  7.9175e+00
  1.0328e+01  1.0959e+01  1.0856e+01  1.1538e+01  1.4172e+01  1.6028e+01  1.3890e+01  1.2139e+01  1.1476e+01  1.1439e+01
  1.0642e+01  9.9461e+00  1.1153e+01  1.1276e+01  1.0016e+01  9.3987e+00  9.4139e+00  9.1300e+00  9.0821e+00  9.5237e+00
  1.6318e+01  1.5883e+01  1.5022e+01  1.6625e+01  1.5557e+01  1.6379e+01  1.5467e+01  1.6452e+01  1.6361e+01  1.6434e+01
  1.5412e+01  1.5017e+01  1.3746e+01  1.4172e+01  1.4115e+01  1.2435e+01  1.3498e+01  1.3231e+01  1.1871e+01  1.1149e+01
  1.0763e+01  1.0643e+01  9.9038e+00  8.5803e+00  8.8734e+00  8.4076e+00  7.9986e+00  8.4425e+00  8.2873e+00  8.9716e+00
  1.0805e+01  1.1340e+01  1.2946e+01  1.4422e+01  1.5852e+01  1.5927e+01  1.4899e+01  1.3338e+01  1.1576e+01  1.1224e+01
  1.1091e+01  1.0863e+01  1.1011e+01  1.0078e+01  8.2154e+00  8.8468e+00  8.9744e+00  9.0827e+00  9.4695e+00  9.2272e+00
  1.6715e+01  1.7826e+01  1.7468e+01  1.5723e+01  1.4925e+01  1.4946e+01  1.5529e+01  1.5659e+01  1.6527e+01  1.5944e+01
  1.5150e+01  1.4626e+01  1.4865e+01  1.4553e+01  1.4408e+01  1.3272e+01  1.2246e+01  1.1478e+01  1.1221e+01  1.0827e+01
  1.0170e+01  1.1660e+01  1.0725e+01  1.0731e+01  1.0443e+01  9.0344e+00  9.8435e+00  8.6988e+00  9.7350e+00  1.0723e+01
  1.1296e+01  1.3037e+01  1.3419e+01  1.3965e+01  1.4098e+01  1.3395e+01  1.2950e+01  1.3890e+01  1.2474e+01  1.1331e+01
  1.2605e+01  1.1938e+01  1.0672e+01  9.2414e+00  9.0465e+00  1.0007e+01  9.6215e+00  1.0303e+01  1.0218e+01  9.5832e+00
  1.7250e+01  1.8167e+01  1.7393e+01  1.5410e+01  1.5624e+01  1.5777e+01  1.5872e+01  1.5050e+01  1.5351e+01  1.5261e+01
  1.3778e+01  1.3950e+01  1.3007e+01  1.4578e+01  1.3833e+01  1.4076e+01  1.1467e+01  1.2004e+01  1.1221e+01  1.0359e+01
  1.1189e+01  1.1810e+01  1.1884e+01  1.1290e+01  9.9777e+00  9.7250e+00  8.9707e+00  1.0587e+01  9.5154e+00  1.0102e+01
  1.0449e+01  1.2458e+01  1.3275e+01  1.4502e+01  1.4623e+01  1.2742e+01  1.2322e+01  1.2988e+01  1.2750e+01  1.2719e+01
  1.2570e+01  1.2260e+01  1.0196e+01  7.5924e+00  9.3564e+00  9.6612e+00  9.3480e+00  8.9247e+00  8.7052e+00  9.1803e+00
  1.6065e+01  1.7712e+01  1.5700e+01  1.5520e+01  1.4389e+01  1.4965e+01  1.4150e+01  1.5388e+01  1.4072e+01  1.3763e+01
  1.2297e+01  1.3398e+01  1.3403e+01  1.3931e+01  1.4352e+01  1.3642e+01  1.1712e+01  9.7650e+00  9.1997e+00  8.8285e+00
  9.1421e+00  1.1640e+01  1.1798e+01  1.0513e+01  1.0777e+01  1.0762e+01  9.2616e+00  9.6218e+00  9.7943e+00  1.0114e+01
  1.0760e+01  1.1543e+01  1.2865e+01  1.2828e+01  1.2806e+01  1.2347e+01  1.2969e+01  1.1998e+01  1.3270e+01  1.2043e+01
  1.0337e+01  1.0240e+01  8.8296e+00  9.6616e+00  9.9049e+00  9.2558e+00  8.1098e+00  8.2747e+00  8.9019e+00  8.4605e+00
  1.5933e+01  1.7337e+01  1.4720e+01  1.4437e+01  1.4414e+01  1.3718e+01  1.4014e+01  1.4627e+01  1.3771e+01  1.2569e+01
  1.2846e+01  1.2104e+01  1.2229e+01  1.3847e+01  1.2706e+01  1.1495e+01  1.0257e+01  9.7813e+00  1.0013e+01  8.9819e+00
  9.0694e+00  1.0299e+01  1.1228e+01  1.0292e+01  1.1243e+01  1.1006e+01  8.4903e+00  8.6438e+00  9.0501e+00  8.2082e+00
  9.5183e+00  9.8453e+00  9.9536e+00  1.1374e+01  1.1509e+01  9.8121e+00  1.0892e+01  1.0448e+01  1.0534e+01  9.5332e+00
  1.0284e+01  9.5708e+00  9.8468e+00  9.5663e+00  8.5770e+00  8.8463e+00  7.8297e+00  8.8482e+00  8.6905e+00  9.1434e+00
  1.6081e+01  1.5429e+01  1.4580e+01  1.3618e+01  1.3471e+01  1.2841e+01  1.3369e+01  1.4094e+01  1.4052e+01  1.4969e+01
  1.5076e+01  1.3808e+01  1.3320e+01  1.2793e+01  1.0603e+01  1.1626e+01  1.0664e+01  1.0161e+01  1.0262e+01  1.0616e+01
  1.0811e+01  1.0884e+01  1.0356e+01  1.0970e+01  9.8984e+00  9.6050e+00  8.6966e+00  8.8453e+00  9.0222e+00  9.5385e+00
  9.7428e+00  1.1528e+01  1.1130e+01  1.1714e+01  1.0706e+01  1.0491e+01  9.5662e+00  1.0273e+01  1.1496e+01  1.1270e+01
  1.0907e+01  1.0571e+01  1.1027e+01  1.0540e+01  9.0595e+00  1.1228e+01  9.3232e+00  1.0306e+01  9.4736e+00  8.1564e+00
  1.5032e+01  1.6519e+01  1.5587e+01  1.5303e+01  1.3805e+01  1.2961e+01  1.3767e+01  1.3699e+01  1.4936e+01  1.3670e+01
  1.5534e+01  1.4781e+01  1.3389e+01  1.2950e+01  1.1045e+01  1.1116e+01  1.1260e+01  1.2096e+01  1.3168e+01  1.3146e+01
  1.2303e+01  1.2292e+01  1.1896e+01  1.0682e+01  9.1412e+00  8.9399e+00  9.7938e+00  8.8202e+00  9.7506e+00  8.7656e+00
  9.8772e+00  1.0670e+01  1.1661e+01  1.0162e+01  1.2647e+01  1.1270e+01  1.0839e+01  1.0784e+01  1.0910e+01  1.1070e+01
  1.1142e+01  1.1078e+01  1.0960e+01  1.0271e+01  1.0872e+01  1.1022e+01  1.0764e+01  9.7210e+00  8.8274e+00  8.4743e+00
  1.4879e+01  1.5132e+01  1.5187e+01  1.4097e+01  1.4492e+01  1.5329e+01  1.4515e+01  1.4412e+01  1.6073e+01  1.5029e+01
  1.4235e+01  1.4486e+01  1.3315e+01  1.2053e+01  1.1008e+01  1.1082e+01  1.2194e+01  1.2138e+01  1.2894e+01  1.4310e+01
  1.3988e+01  1.3644e+01  1.2228e+01  1.2242e+01  1.0331e+01  1.0662e+01  1.0773e+01  9.5582e+00  8.7474e+00  9.7107e+00
  1.0486e+01  1.0571e+01  1.1298e+01  1.1983e+01  1.2354e+01  1.1251e+01  1.1297e+01  1.1879e+01  1.2349e+01  1.0921e+01
  1.1680e+01  1.1005e+01  1.1087e+01  1.0446e+01  1.0304e+01  1.0983e+01  1.0146e+01  8.8300e+00  7.9673e+00  7.5095e+00
  1.5957e+01  1.4935e+01  1.4711e+01  1.4301e+01  1.4945e+01  1.5634e+01  1.4862e+01  1.4784e+01  1.5315e+01  1.5202e+01
  1.4001e+01  1.2678e+01  1.2538e+01  1.2895e+01  1.1553e+01  1.2796e+01  1.2852e+01  1.2890e+01  1.2932e+01  1.2609e+01
  1.3141e+01  1.2692e+01  1.3001e+01  1.2474e+01  1.1895e+01  1.1815e+01  1.0783e+01  8.7901e+00  9.1697e+00  9.3954e+00
  9.4177e+00  1.0876e+01  1.1743e+01  1.0308e+01  1.1937e+01  1.1833e+01  1.0939e+01  1.1342e+01  1.2178e+01  1.1293e+01
  1.1012e+01  1.0320e+01  1.0313e+01  9.4340e+00  9.9188e+00  9.2679e+00  8.9683e+00  9.5906e+00  6.9275e+00  7.5317e+00
  1.4211e+01  1.3341e+01  1.3736e+01  1.4063e+01  1.5568e+01  1.5570e+01  1.5880e+01  1.5577e+01  1.3994e+01  1.3539e+01
  1.1662e+01  1.1425e+01  1.1577e+01  1.2379e+01  1.3177e+01  1.2633e+01  1.2163e+01  1.2280e+01  1.2618e+01  1.2555e+01
  1.3033e+01  1.3823e+01  1.4036e+01  1.3333e+01  1.2865e+01  1.1555e+01  1.1404e+01  9.9244e+00  1.0155e+01  9.9005e+00
  1.0229e+01  1.0658e+01  1.1982e+01  1.0986e+01  1.0439e+01  1.1066e+01  1.0551e+01  1.1484e+01  1.0448e+01  8.8922e+00
  8.4025e+00  8.8953e+00  9.0986e+00  8.5576e+00  8.3628e+00  7.8710e+00  7.7883e+00  8.1407e+00  6.8922e+00  6.2754e+00
  1.3448e+01  1.2979e+01  1.3360e+01  1.3747e+01  1.3957e+01  1.3846e+01  1.3946e+01  1.4513e+01  1.3322e+01  1.2783e+01
  1.2398e+01  1.0803e+01  1.0733e+01  1.2436e+01  1.2571e+01  1.3502e+01  1.2999e+01  1.3933e+01  1.3581e+01  1.3123e+01
  1.3007e+01  1.4132e+01  1.4034e+01  1.2701e+01  1.1830e+01  1.2460e+01  1.1601e+01  1.0476e+01  1.1183e+01  1.1362e+01
  1.0224e+01  1.0076e+01  1.0698e+01  9.0182e+00  9.3893e+00  9.0909e+00  9.8613e+00  1.0682e+01  9.6658e+00  9.1303e+00
  9.5621e+00  1.0138e+01  1.0383e+01  8.8302e+00  8.5703e+00  8.5211e+00  7.2429e+00  6.0351e+00  5.2717e+00  5.2059e+00
  1.2352e+01  1.2274e+01  1.3002e+01  1.3105e+01  1.4032e+01  1.3617e+01  1.2963e+01  1.2203e+01  1.4062e+01  1.3925e+01
  1.3812e+01  1.2853e+01  1.2660e+01  1.3452e+01  1.2180e+01  1.2813e+01  1.2775e+01  1.1416e+01  1.3148e+01  1.2787e+01
  1.3828e+01  1.3983e+01  1.3853e+01  1.2573e+01  1.2108e+01  1.1858e+01  1.2020e+01  1.3305e+01  1.1392e+01  9.3559e+00
  8.5951e+00  8.2753e+00  7.8514e+00  8.6920e+00  8.6291e+00  9.8808e+00  1.0036e+01  1.0428e+01  1.0343e+01  1.0586e+01
  1.0491e+01  1.1353e+01  1.1003e+01  1.0020e+01  7.1696e+00  6.9272e+00  8.2531e+00  6.4369e+00  6.0528e+00  7.0759e+00
  1.1708e+01  1.2032e+01  1.2209e+01  1.2577e+01  1.2757e+01  1.2937e+01  1.2284e+01  1.1976e+01  1.2732e+01  1.3221e+01
  1.3830e+01  1.3484e+01  1.2311e+01  1.2458e+01  1.1365e+01  1.1430e+01  1.1371e+01  1.2493e+01  1.2345e+01  1.2765e+01
  1.3582e+01  1.3379e+01  1.3412e+01  1.3737e+01  1.2466e+01  1.0554e+01  1.0165e+01  1.0285e+01  1.0061e+01  9.4719e+00
  9.1998e+00  8.1420e+00  8.3988e+00  9.3600e+00  9.9010e+00  8.8166e+00  9.7147e+00  9.8282e+00  1.1053e+01  1.1252e+01
  1.1338e+01  1.1111e+01  1.0522e+01  9.1390e+00  8.1066e+00  8.0355e+00  7.3499e+00  7.7591e+00  7.0465e+00  7.4749e+00
  1.0441e+01  1.0131e+01  1.1309e+01  1.1452e+01  1.1501e+01  1.1171e+01  1.1225e+01  1.1372e+01  1.0433e+01  1.1040e+01
  1.2621e+01  1.2724e+01  1.2024e+01  1.0628e+01  1.0678e+01  1.0425e+01  1.1200e+01  1.1391e+01  1.1352e+01  1.1309e+01
  1.2080e+01  1.1355e+01  1.2254e+01  1.1479e+01  1.0881e+01  1.0603e+01  1.0735e+01  9.6755e+00  8.9012e+00  8.3629e+00
  7.7853e+00  7.2902e+00  7.7825e+00  8.6027e+00  1.0040e+01  8.7494e+00  9.9545e+00  9.4172e+00  1.0201e+01  1.0772e+01
  1.1483e+01  1.1295e+01  1.0920e+01  9.7847e+00  8.8856e+00  8.3600e+00  7.5414e+00  8.0555e+00  8.7829e+00  8.9692e+00
  1.1280e+01  1.0532e+01  9.3572e+00  1.0556e+01  9.6136e+00  1.0265e+01  9.3666e+00  1.0432e+01  1.1924e+01  1.0997e+01
  1.0538e+01  1.0730e+01  1.0814e+01  1.1159e+01  1.0698e+01  1.1050e+01  1.1321e+01  1.0505e+01  1.0492e+01  1.0769e+01
  1.0748e+01  1.1184e+01  1.0818e+01  1.0061e+01  1.1105e+01  1.1546e+01  1.1220e+01  9.2961e+00  7.8910e+00  8.6924e+00
  7.3543e+00  7.8842e+00  8.1278e+00  8.7153e+00  8.3891e+00  8.2628e+00  9.4815e+00  9.9799e+00  1.0669e+01  9.8176e+00
  9.1807e+00  1.1388e+01  1.0586e+01  1.0069e+01  1.0045e+01  1.0546e+01  1.0013e+01  9.6373e+00  8.9633e+00  9.7117e+00
  1.0169e+01  1.0361e+01  8.8841e+00  9.4568e+00  8.7242e+00  7.7250e+00  8.6341e+00  1.0707e+01  1.1819e+01  1.0199e+01
  1.0920e+01  1.0515e+01  1.1344e+01  1.1212e+01  8.1884e+00  9.0475e+00  1.0102e+01  1.0494e+01  9.9039e+00  1.0680e+01
  1.1810e+01  1.1392e+01  1.0635e+01  1.1309e+01  1.1285e+01  1.0345e+01  1.0896e+01  9.3586e+00  8.7393e+00  8.4987e+00
  8.6754e+00  7.2243e+00  8.4791e+00  8.3575e+00  7.5441e+00  9.7223e+00  9.6074e+00  9.5145e+00  1.0289e+01  1.0741e+01
  1.0246e+01  1.1817e+01  1.1095e+01  1.0765e+01  1.0199e+01  1.0233e+01  1.0377e+01  1.0401e+01  1.2016e+01  1.0849e+01
  8.6611e+00  8.9743e+00  9.0839e+00  7.8435e+00  7.3694e+00  8.3387e+00  9.7063e+00  9.5432e+00  1.1223e+01  1.1656e+01
  1.2357e+01  1.1950e+01  1.1186e+01  1.0730e+01  1.0955e+01  9.0108e+00  9.2693e+00  9.7277e+00  1.0992e+01  9.8678e+00
  8.9838e+00  9.4072e+00  9.3491e+00  9.4202e+00  1.0560e+01  1.0774e+01  9.6261e+00  9.6676e+00  9.5338e+00  8.5804e+00
  1.0022e+01  9.8271e+00  9.1411e+00  8.3596e+00  8.3866e+00  9.8361e+00  1.1370e+01  9.7358e+00  9.7717e+00  1.0759e+01
  9.8569e+00  1.0766e+01  1.1269e+01  1.1030e+01  1.1509e+01  9.8225e+00  9.2053e+00  1.0580e+01  1.1260e+01  1.2826e+01
  1.0162e+01  1.0436e+01  8.0387e+00  7.6065e+00  9.1540e+00  9.4739e+00  1.0861e+01  1.1427e+01  1.1265e+01  1.2338e+01
  1.2269e+01  1.0300e+01  1.1318e+01  1.1212e+01  8.9170e+00  9.3853e+00  9.9263e+00  9.4970e+00  8.7261e+00  1.0071e+01
  9.0539e+00  9.7671e+00  1.0022e+01  9.5332e+00  9.6925e+00  1.0512e+01  9.8312e+00  1.0522e+01  9.7512e+00  9.4649e+00
  1.0141e+01  1.0417e+01  8.9924e+00  8.7623e+00  8.1864e+00  8.6794e+00  1.0165e+01  9.5891e+00  9.1181e+00  1.1765e+01
  1.1824e+01  1.0558e+01  1.0746e+01  9.7445e+00  9.6530e+00  8.9645e+00  1.0822e+01  1.0817e+01  1.1756e+01  1.1581e+01
  8.3056e+00  8.8542e+00  7.8944e+00  8.1986e+00  9.7124e+00  1.0157e+01  9.7607e+00  9.9583e+00  1.0126e+01  1.1241e+01
  1.0637e+01  1.1231e+01  1.1981e+01  1.1337e+01  1.0147e+01  9.8448e+00  9.1771e+00  8.9120e+00  8.1975e+00  9.5435e+00
  1.0412e+01  9.3255e+00  9.4360e+00  1.0227e+01  1.0379e+01  1.1766e+01  1.2310e+01  1.1608e+01  1.1485e+01  1.1426e+01
  1.0126e+01  9.5669e+00  8.8733e+00  9.4460e+00  8.9300e+00  8.9191e+00  9.5089e+00  9.1331e+00  9.3827e+00  1.0407e+01
  1.1375e+01  1.0891e+01  1.1198e+01  1.0762e+01  1.1096e+01  1.0263e+01  1.0964e+01  1.2184e+01  1.1492e+01  1.2575e+01
  9.2752e+00  8.9392e+00  9.0964e+00  8.0871e+00  8.7524e+00  9.0428e+00  9.0563e+00  1.0646e+01  1.1335e+01  1.1135e+01
  1.0533e+01  1.0135e+01  1.0451e+01  1.1569e+01  1.0133e+01  8.8724e+00  9.5824e+00  8.7964e+00  9.3429e+00  9.2108e+00
  1.0432e+01  1.1215e+01  1.0566e+01  1.0926e+01  1.0551e+01  1.0939e+01  1.0054e+01  1.1416e+01  1.0799e+01  1.0628e+01
  9.1515e+00  8.3245e+00  9.9842e+00  1.0472e+01  1.0488e+01  1.1304e+01  1.0465e+01  1.1414e+01  1.1152e+01  1.0617e+01
  1.2528e+01  1.3318e+01  1.2231e+01  1.1620e+01  1.1748e+01  1.1053e+01  1.1992e+01  1.3038e+01  1.2756e+01  1.2071e+01
  8.1093e+00  8.6347e+00  9.4742e+00  1.0228e+01  9.3860e+00  9.3500e+00  8.8779e+00  1.0582e+01  9.2979e+00  9.9159e+00
  9.4797e+00  9.4560e+00  8.7650e+00  9.5019e+00  1.0113e+01  8.6527e+00  8.6395e+00  7.7041e+00  7.6253e+00  8.8187e+00
  1.0667e+01  1.0110e+01  9.5086e+00  8.4028e+00  9.3594e+00  9.5224e+00  9.1165e+00  9.9341e+00  1.0726e+01  9.9565e+00
  9.3864e+00  8.5152e+00  1.0503e+01  1.1275e+01  1.2684e+01  1.3367e+01  1.2120e+01  1.2724e+01  1.2479e+01  1.1678e+01
  1.2952e+01  1.2886e+01  1.2331e+01  1.1744e+01  1.2312e+01  1.1895e+01  1.3106e+01  1.3461e+01  1.2500e+01  1.3270e+01
  8.6651e+00  7.6673e+00  8.1738e+00  8.9683e+00  8.2872e+00  8.1344e+00  8.8259e+00  8.7371e+00  9.1996e+00  1.0393e+01
  9.0672e+00  8.0128e+00  7.6279e+00  8.9879e+00  7.6801e+00  8.8051e+00  9.5359e+00  9.0737e+00  1.0046e+01  1.0070e+01
  9.9325e+00  9.6053e+00  9.3783e+00  9.1173e+00  9.7637e+00  1.1461e+01  1.1642e+01  1.1469e+01  1.0723e+01  9.9596e+00
  1.0419e+01  1.1585e+01  1.1457e+01  1.0193e+01  1.1906e+01  1.1877e+01  1.3244e+01  1.2941e+01  1.3377e+01  1.2498e+01
  1.3596e+01  1.3475e+01  1.3253e+01  1.3143e+01  1.3657e+01  1.3223e+01  1.3284e+01  1.3558e+01  1.3844e+01  1.3793e+01
  1.0278e+01  9.4379e+00  8.8873e+00  1.0163e+01  1.0458e+01  1.0264e+01  9.7214e+00  8.1973e+00  9.3439e+00  9.6657e+00
  8.8072e+00  8.7130e+00  6.9432e+00  7.5582e+00  8.5636e+00  8.0391e+00  8.5926e+00  9.3163e+00  9.7971e+00  1.0077e+01
  8.9736e+00  8.8235e+00  8.4951e+00  9.5119e+00  8.5997e+00  1.0715e+01  1.1017e+01  1.1877e+01  1.2409e+01  1.2428e+01
  1.1790e+01  1.1724e+01  1.3061e+01  1.1320e+01  1.0592e+01  1.1366e+01  1.3452e+01  1.5253e+01  1.5395e+01  1.4688e+01
  1.3764e+01  1.3495e+01  1.3395e+01  1.3580e+01  1.4228e+01  1.3099e+01  1.3752e+01  1.3887e+01  1.3441e+01  1.4072e+01
  8.7726e+00  8.4092e+00  9.1340e+00  1.0465e+01  9.5539e+00  1.0493e+01  1.0145e+01  8.9518e+00  9.6891e+00  7.4077e+00
  7.7754e+00  8.0415e+00  7.0587e+00  9.0409e+00  7.9922e+00  8.3438e+00  8.1883e+00  7.8544e+00  8.9317e+00  1.0375e+01
  9.7442e+00  9.8288e+00  8.1242e+00  7.7607e+00  7.9364e+00  1.0017e+01  1.0309e+01  1.0952e+01  1.1375e+01  1.1527e+01
  1.2823e+01  1.2444e+01  1.2643e+01  1.2314e+01  1.1567e+01  1.1581e+01  1.2598e+01  1.4706e+01  1.4370e+01  1.4459e+01
  1.2865e+01  1.3651e+01  1.3450e+01  1.4157e+01  1.3568e+01  1.3834e+01  1.4196e+01  1.5195e+01  1.4321e+01  1.4651e+01
  8.1652e+00  7.3080e+00  9.6461e+00  8.8072e+00  1.0191e+01  1.0736e+01  9.3962e+00  8.7285e+00  9.1697e+00  8.6499e+00
  7.7079e+00  8.0259e+00  6.9862e+00  6.6931e+00  8.3507e+00  7.8875e+00  6.3961e+00  6.9749e+00  8.8421e+00  9.1479e+00
  9.1792e+00  6.9334e+00  6.3427e+00  7.2188e+00  8.7499e+00  9.4718e+00  9.8558e+00  8.8215e+00  9.5592e+00  9.7873e+00
  1.0418e+01  1.2025e+01  1.1996e+01  1.1292e+01  1.1198e+01  1.1423e+01  1.2775e+01  1.3479e+01  1.2403e+01  1.2681e+01
  1.3536e+01  1.3858e+01  1.3362e+01  1.4678e+01  1.4719e+01  1.3597e+01  1.4406e+01  1.5793e+01  1.5565e+01  1.4936e+01
  6.7379e+00  6.9456e+00  7.2519e+00  7.1382e+00  7.8964e+00  9.4088e+00  1.0265e+01  9.7931e+00  7.7188e+00  7.3906e+00
  7.2198e+00  7.2432e+00  7.6636e+00  7.7975e+00  8.0858e+00  7.6537e+00  5.7442e+00  6.5725e+00  6.4865e+00  7.0073e+00
  7.3896e+00  6.5880e+00  6.0357e+00  6.7822e+00  8.5103e+00  9.3203e+00  9.8694e+00  9.4182e+00  8.8556e+00  7.6494e+00
  8.8716e+00  1.0010e+01  1.1441e+01  1.1440e+01  1.0691e+01  1.0110e+01  1.0894e+01  1.0766e+01  1.2938e+01  1.3099e+01
  1.4128e+01  1.3919e+01  1.4259e+01  1.3410e+01  1.3757e+01  1.4859e+01  1.5166e+01  1.5724e+01  1.5039e+01  1.3614e+01
  6.7446e+00  7.5096e+00  8.8609e+00  6.8601e+00  8.4639e+00  8.5672e+00  9.0521e+00  9.3873e+00  8.7968e+00  7.7569e+00
  6.7706e+00  7.1690e+00  8.7898e+00  9.4894e+00  8.9496e+00  8.7066e+00  7.2298e+00  6.3112e+00  6.9291e+00  6.7954e+00
  6.7804e+00  7.0792e+00  7.1465e+00  7.6778e+00  7.8377e+00  8.2924e+00  8.2545e+00  8.0486e+00  8.2696e+00  8.1071e+00
  8.7468e+00  9.6583e+00  9.5421e+00  1.1267e+01  1.0294e+01  8.4016e+00  9.3977e+00  1.0196e+01  1.0673e+01  1.2093e+01
  1.4053e+01  1.4927e+01  1.4451e+01  1.3808e+01  1.2891e+01  1.2787e+01  1.3809e+01  1.3615e+01  1.4360e+01  1.4049e+01
  6.6897e+00  7.8176e+00  8.0698e+00  7.9116e+00  8.8660e+00  8.4379e+00  9.4151e+00  1.0129e+01  9.8672e+00  8.2935e+00
  7.4368e+00  8.3388e+00  9.0491e+00  9.5523e+00  8.9814e+00  7.6297e+00  7.9004e+00  8.1722e+00  7.7213e+00  8.0798e+00
  7.6714e+00  8.1732e+00  7.7042e+00  6.4898e+00  6.8055e+00  7.4126e+00  8.5518e+00  7.5441e+00  7.6933e+00  6.7071e+00
  5.8244e+00  7.4581e+00  9.0322e+00  9.3109e+00  9.0460e+00  9.2125e+00  9.1170e+00  9.5068e+00  1.0685e+01  1.2337e+01
  1.2976e+01  1.3303e+01  1.4508e+01  1.4196e+01  1.3436e+01  1.3424e+01  1.3198e+01  1.3999e+01  1.2806e+01  1.3832e+01
  7.2964e+00  7.7213e+00  8.5417e+00  8.6746e+00  9.2677e+00  8.9785e+00  8.7747e+00  8.8028e+00  8.1977e+00  8.1682e+00
  7.7666e+00  7.6068e+00  8.8160e+00  8.4037e+00  7.7646e+00  7.5702e+00  8.3127e+00  8.3670e+00  8.1838e+00  8.2798e+00
  1.0152e+01  8.9615e+00  7.8403e+00  8.0489e+00  7.6979e+00  9.0424e+00  8.3088e+00  6.6021e+00  7.0104e+00  7.1281e+00
  8.0740e+00  8.3912e+00  9.6859e+00  9.3098e+00  7.8384e+00  8.5187e+00  9.3002e+00  9.5653e+00  1.1504e+01  1.2366e+01
  1.3209e+01  1.2632e+01  1.3037e+01  1.3184e+01  1.2672e+01  1.3050e+01  1.2315e+01  1.3069e+01  1.3200e+01  1.4324e+01
  8.8915e+00  8.6427e+00  9.0828e+00  9.8385e+00  9.5922e+00  9.7492e+00  1.0016e+01  8.3004e+00  8.8373e+00  6.7333e+00
  7.3207e+00  7.1166e+00  7.9497e+00  8.7041e+00  8.8092e+00  8.9434e+00  9.5237e+00  1.0800e+01  1.0099e+01  9.1726e+00
  7.9957e+00  7.8163e+00  8.0129e+00  8.1875e+00  6.8649e+00  7.3084e+00  7.1688e+00  5.5748e+00  6.9329e+00  6.9650e+00
  7.9915e+00  7.5790e+00  7.5358e+00  7.4427e+00  8.1454e+00  8.3065e+00  8.6857e+00  8.5764e+00  1.0693e+01  1.1826e+01
  1.2966e+01  1.3894e+01  1.3882e+01  1.2368e+01  1.3225e+01  1.2819e+01  1.2918e+01  1.3677e+01  1.3450e+01  1.4909e+01
  8.4101e+00  7.0549e+00  8.6217e+00  9.3195e+00  9.8616e+00  9.3858e+00  9.4398e+00  9.4015e+00  9.3306e+00  9.3052e+00
  8.6591e+00  7.3594e+00  7.9607e+00  7.8977e+00  9.0570e+00  9.3696e+00  1.0204e+01  1.2095e+01  1.1692e+01  9.6347e+00
  8.6423e+00  6.4927e+00  6.0316e+00  6.8235e+00  6.1621e+00  6.1072e+00  5.5145e+00  5.5445e+00  6.1622e+00  6.9811e+00
  6.7593e+00  5.9059e+00  6.0934e+00  6.7690e+00  8.9146e+00  9.6840e+00  1.0948e+01  1.0098e+01  1.0889e+01  1.2162e+01
  1.2377e+01  1.3251e+01  1.2592e+01  1.1737e+01  1.1665e+01  1.3209e+01  1.4759e+01  1.5021e+01  1.5108e+01  1.4396e+01
  9.1858e+00  8.6539e+00  9.3473e+00  8.8339e+00  8.9408e+00  7.5932e+00  6.1988e+00  8.1169e+00  8.8926e+00  9.0958e+00
  8.7264e+00  9.3373e+00  9.0739e+00  9.8159e+00  7.6899e+00  9.2333e+00  1.0548e+01  9.9983e+00  1.0611e+01  1.0189e+01
  8.9236e+00  6.0513e+00  6.5455e+00  7.3984e+00  5.5332e+00  5.7159e+00  5.8357e+00  5.2797e+00  4.8727e+00  5.0215e+00
  6.0566e+00  5.6467e+00  5.7125e+00  6.5297e+00  8.7141e+00  9.9095e+00  9.9491e+00  1.0642e+01  1.1682e+01  1.2247e+01
  1.3611e+01  1.2896e+01  1.2699e+01  1.3208e+01  1.2257e+01  1.3541e+01  1.4452e+01  1.3333e+01  1.4386e+01  1.4857e+01
  1.0021e+01  9.7682e+00  9.6458e+00  1.0335e+01  9.9929e+00  9.4538e+00  8.4645e+00  7.6005e+00  9.3156e+00  1.0130e+01
  9.6908e+00  9.7631e+00  8.8169e+00  9.4221e+00  8.9234e+00  8.5202e+00  9.5728e+00  1.0446e+01  1.0333e+01  9.3141e+00
  8.5291e+00  7.7843e+00  7.6930e+00  6.8211e+00  7.0407e+00  6.3540e+00  5.7701e+00  6.7907e+00  7.1117e+00  5.3477e+00
  5.7360e+00  6.5113e+00  7.0276e+00  8.5888e+00  9.8762e+00  1.0304e+01  1.1235e+01  1.0387e+01  1.2142e+01  1.2268e+01
  1.2967e+01  1.2422e+01  1.3362e+01  1.4882e+01  1.4080e+01  1.4528e+01  1.3669e+01  1.3376e+01  1.3287e+01  1.4437e+01
  1.0599e+01  1.1737e+01  1.0637e+01  1.1051e+01  1.0661e+01  1.0008e+01  9.8261e+00  9.3075e+00  9.6922e+00  1.1875e+01
  1.0632e+01  9.6721e+00  9.0227e+00  1.0237e+01  1.0377e+01  1.0062e+01  9.0323e+00  1.0286e+01  1.0545e+01  9.1706e+00
  9.5570e+00  9.8870e+00  8.4308e+00  7.2916e+00  6.7208e+00  6.0165e+00  7.0271e+00  7.0656e+00  6.5243e+00  7.4961e+00
  6.9600e+00  8.2974e+00  8.3384e+00  8.8380e+00  1.0936e+01  1.2094e+01  1.1537e+01  1.1852e+01  1.1941e+01  1.2044e+01
  1.2445e+01  1.3996e+01  1.4928e+01  1.4142e+01  1.4481e+01  1.4106e+01  1.3428e+01  1.2666e+01  1.4810e+01  1.4865e+01
  1.1295e+01  1.1334e+01  1.1953e+01  1.1341e+01  9.1822e+00  9.0238e+00  1.0159e+01  9.9961e+00  9.9706e+00  9.3441e+00
  8.7681e+00  8.3356e+00  9.3301e+00  1.1165e+01  1.0676e+01  1.0873e+01  1.0464e+01  1.1280e+01  1.0206e+01  9.1202e+00
  1.0624e+01  9.6064e+00  8.7239e+00  8.1353e+00  7.7791e+00  6.7129e+00  5.9981e+00  6.6001e+00  7.1017e+00  8.2694e+00
  8.4633e+00  1.0266e+01  1.0976e+01  1.2517e+01  1.1829e+01  1.3211e+01  1.4118e+01  1.3646e+01  1.2670e+01  1.2538e+01
  1.3361e+01  1.3567e+01  1.3480e+01  1.3915e+01  1.4092e+01  1.3494e+01  1.2716e+01  1.3041e+01  1.3988e+01  1.3499e+01
  1.1979e+01  1.1114e+01  1.1249e+01  1.0718e+01  1.0548e+01  9.5105e+00  1.0396e+01  9.8078e+00  9.9409e+00  9.4909e+00
  8.7337e+00  8.5400e+00  1.0502e+01  1.1786e+01  1.0450e+01  8.7644e+00  9.0068e+00  9.7027e+00  1.0006e+01  9.1178e+00
  9.3390e+00  7.7652e+00  8.3394e+00  8.0576e+00  7.0416e+00  6.3284e+00  7.6375e+00  7.1108e+00  7.7283e+00  8.1451e+00
  8.8742e+00  9.1691e+00  1.0391e+01  1.2487e+01  1.3969e+01  1.4206e+01  1.4023e+01  1.3902e+01  1.4623e+01  1.3640e+01
  1.3048e+01  1.3666e+01  1.3289e+01  1.4853e+01  1.2647e+01  1.3064e+01  1.1978e+01  1.2417e+01  1.2331e+01  1.2274e+01
  1.0855e+01  1.0866e+01  1.0989e+01  1.0211e+01  1.0547e+01  9.2648e+00  9.1040e+00  9.4756e+00  8.8635e+00  7.6503e+00
  8.5299e+00  9.5730e+00  1.0506e+01  1.0232e+01  1.0263e+01  9.0245e+00  9.0436e+00  8.9874e+00  9.1739e+00  8.1276e+00
  6.6024e+00  7.1192e+00  7.8019e+00  8.6859e+00  8.5871e+00  6.7356e+00  6.9389e+00  7.8517e+00  7.5016e+00  9.2502e+00
  1.0877e+01  1.1355e+01  1.1613e+01  1.1865e+01  1.3849e+01  1.3784e+01  1.3227e+01  1.3928e+01  1.5256e+01  1.3446e+01
  1.3482e+01  1.4290e+01  1.5490e+01  1.3620e+01  1.3372e+01  1.2682e+01  1.2558e+01  1.1918e+01  1.3116e+01  1.3551e+01
  1.1027e+01  9.8408e+00  9.6845e+00  8.2450e+00  8.4880e+00  9.2240e+00  8.2315e+00  8.0952e+00  7.4456e+00  7.8534e+00
  7.2958e+00  7.9680e+00  9.0815e+00  9.3279e+00  9.2455e+00  8.9448e+00  1.0149e+01  9.6460e+00  9.0836e+00  8.7225e+00
  8.3794e+00  8.5967e+00  8.3553e+00  8.0900e+00  9.5962e+00  8.6130e+00  8.0413e+00  7.5949e+00  8.2360e+00  9.4172e+00
  1.0119e+01  1.0646e+01  1.1491e+01  1.2371e+01  1.1386e+01  1.3291e+01  1.3534e+01  1.4374e+01  1.3806e+01  1.3661e+01
  1.3470e+01  1.3782e+01  1.5074e+01  1.5511e+01  1.4673e+01  1.3773e+01  1.2666e+01  1.0845e+01  1.2218e+01  1.2804e+01
  9.5002e+00  8.9606e+00  7.8718e+00  8.3448e+00  8.4354e+00  9.2015e+00  8.5673e+00  6.8619e+00  7.1101e+00  6.9549e+00
  6.6192e+00  7.0544e+00  9.2915e+00  8.9791e+00  1.0308e+01  1.0619e+01  1.0491e+01  9.7540e+00  9.0454e+00  8.6897e+00
  9.9429e+00  9.4458e+00  8.2111e+00  7.2474e+00  8.5079e+00  8.4995e+00  8.0563e+00  9.7766e+00  9.3499e+00  9.8249e+00
  9.9777e+00  1.0174e+01  1.1395e+01  1.2208e+01  1.2820e+01  1.2538e+01  1.4714e+01  1.3524e+01  1.4199e+01  1.4026e+01
  1.4019e+01  1.3715e+01  1.3461e+01  1.2687e+01  1.2688e+01  1.3611e+01  1.3868e+01  1.3307e+01  1.3743e+01  1.3765e+01
  8.6809e+00  8.6950e+00  8.1066e+00  9.4019e+00  9.8463e+00  1.1258e+01  1.0000e+01  9.5347e+00  9.1117e+00  7.0948e+00
  6.1360e+00  6.4237e+00  8.1268e+00  9.6477e+00  9.8688e+00  8.9269e+00  8.8800e+00  8.8459e+00  8.7865e+00  9.8381e+00
  9.5545e+00  9.0447e+00  9.6721e+00  9.7662e+00  1.0640e+01  9.3904e+00  8.8194e+00  8.2525e+00  1.0051e+01  1.0929e+01
  1.1031e+01  1.2521e+01  1.2516e+01  1.2958e+01  1.4432e+01  1.4459e+01  1.3890e+01  1.3591e+01  1.3657e+01  1.4028e+01
  1.2934e+01  1.3954e+01  1.4779e+01  1.3356e+01  1.4228e+01  1.3387e+01  1.4072e+01  1.3059e+01  1.3570e+01  1.5026e+01
  1.0005e+01  1.0862e+01  1.1523e+01  1.1047e+01  1.1337e+01  1.0554e+01  1.0180e+01  9.0892e+00  9.7074e+00  8.7260e+00
  8.3971e+00  7.2403e+00  6.9124e+00  8.6631e+00  9.4589e+00  1.0226e+01  1.1001e+01  9.9179e+00  1.1206e+01  1.1741e+01
  1.1590e+01  1.1093e+01  1.1158e+01  1.0420e+01  9.5354e+00  1.0710e+01  1.0358e+01  9.7184e+00  1.0223e+01  1.0463e+01
  1.0794e+01  1.1945e+01  1.2627e+01  1.4451e+01  1.4520e+01  1.4266e+01  1.3767e+01  1.2164e+01  1.2990e+01  1.4263e+01
  1.3583e+01  1.2696e+01  1.3206e+01  1.4322e+01  1.2934e+01  1.2565e+01  1.2856e+01  1.2838e+01  1.3185e+01  1.2798e+01
  1.1110e+01  1.1593e+01  1.2747e+01  1.0612e+01  1.0772e+01  1.1732e+01  1.1038e+01  9.4285e+00  9.1940e+00  8.9462e+00
  9.0540e+00  9.0055e+00  7.3293e+00  8.0674e+00  1.0933e+01  1.1886e+01  1.1132e+01  1.0108e+01  1.0602e+01  1.0770e+01
  1.1335e+01  1.0649e+01  1.0861e+01  1.0124e+01  1.0828e+01  1.0787e+01  1.1503e+01  1.1298e+01  9.9121e+00  1.0920e+01
  1.0314e+01  1.2495e+01  1.4767e+01  1.4432e+01  1.4561e+01  1.3844e+01  1.2986e+01  1.2629e+01  1.4634e+01  1.4553e+01
  1.4435e+01  1.2352e+01  1.3062e+01  1.2300e+01  1.3029e+01  1.1060e+01  1.1991e+01  1.3769e+01  1.3715e+01  1.4277e+01
  1.1655e+01  1.3308e+01  1.3404e+01  1.2860e+01  1.2457e+01  1.1793e+01  1.1923e+01  1.0296e+01  1.0269e+01  1.0871e+01
  1.1179e+01  9.8409e+00  9.4230e+00  1.0843e+01  1.2052e+01  1.4676e+01  1.3781e+01  1.1996e+01  1.2160e+01  1.1135e+01
  1.1466e+01  1.2346e+01  1.2514e+01  1.0787e+01  1.0113e+01  9.5767e+00  1.0300e+01  1.0413e+01  1.0629e+01  1.0552e+01
  1.1802e+01  1.3332e+01  1.3759e+01  1.5391e+01  1.5297e+01  1.4543e+01  1.3701e+01  1.4691e+01  1.6172e+01  1.4886e+01
  1.4632e+01  1.2478e+01  1.3031e+01  1.2738e+01  1.3180e+01  1.1669e+01  1.2737e+01  1.3373e+01  1.3741e+01  1.3645e+01
  1.3436e+01  1.2935e+01  1.3155e+01  1.2888e+01  1.2181e+01  1.0577e+01  9.6771e+00  1.0536e+01  1.0802e+01  1.1477e+01
  1.1122e+01  1.1307e+01  1.2073e+01  1.2054e+01  1.2517e+01  1.4341e+01  1.6187e+01  1.5815e+01  1.4164e+01  1.2083e+01
  1.2049e+01  1.2106e+01  1.2338e+01  1.0931e+01  1.0698e+01  1.0592e+01  1.2209e+01  1.2779e+01  1.3072e+01  1.1902e+01
  1.2717e+01  1.2745e+01  1.3453e+01  1.3955e+01  1.3884e+01  1.4907e+01  1.4833e+01  1.5046e+01  1.5356e+01  1.5312e+01
  1.4905e+01  1.3484e+01  1.2750e+01  1.4079e+01  1.4200e+01  1.2667e+01  1.2658e+01  1.4114e+01  1.5234e+01  1.4395e+01
  1.3557e+01  1.4203e+01  1.3499e+01  1.3225e+01  1.1414e+01  1.1321e+01  1.0415e+01  1.0956e+01  1.1983e+01  1.1191e+01
  1.0832e+01  1.1763e+01  1.3457e+01  1.3635e+01  1.4076e+01  1.3187e+01  1.4462e+01  1.3881e+01  1.2839e+01  1.2757e+01
  1.1683e+01  1.2105e+01  1.3092e+01  1.3688e+01  1.4169e+01  1.3634e+01  1.2942e+01  1.2376e+01  1.1732e+01  1.2991e+01
  1.2937e+01  1.1382e+01  1.2746e+01  1.4505e+01  1.4482e+01  1.3821e+01  1.5284e+01  1.5844e+01  1.4822e+01  1.5322e+01
  1.4970e+01  1.3736e+01  1.4877e+01  1.5140e+01  1.3924e+01  1.4326e+01  1.4718e+01  1.4459e+01  1.5266e+01  1.6849e+01
  1.4306e+01  1.3288e+01  1.2219e+01  1.2033e+01  1.1583e+01  1.0977e+01  1.0092e+01  1.1356e+01  1.1302e+01  1.1373e+01
  1.0723e+01  1.0467e+01  1.2516e+01  1.3487e+01  1.3112e+01  1.4600e+01  1.3530e+01  1.2890e+01  1.4621e+01  1.3095e+01
  1.2194e+01  1.3264e+01  1.3881e+01  1.3914e+01  1.3857e+01  1.3686e+01  1.3345e+01  1.3320e+01  1.2615e+01  1.3370e+01
  1.4015e+01  1.3710e+01  1.4389e+01  1.4374e+01  1.3706e+01  1.4363e+01  1.5262e+01  1.4601e+01  1.4161e+01  1.5230e+01
  1.3991e+01  1.4445e+01  1.4645e+01  1.5707e+01  1.4895e+01  1.4967e+01  1.4351e+01  1.5188e+01  1.4900e+01  1.5536e+01
  1.3446e+01  1.2315e+01  1.2824e+01  1.2345e+01  1.0949e+01  1.1527e+01  9.6927e+00  1.1007e+01  1.0959e+01  1.1133e+01
  1.1668e+01  1.1254e+01  1.1893e+01  1.1855e+01  1.2702e+01  1.3437e+01  1.3839e+01  1.3424e+01  1.2741e+01  1.1999e+01
  1.2635e+01  1.2343e+01  1.2402e+01  1.3365e+01  1.3793e+01  1.5099e+01  1.5174e+01  1.3539e+01  1.3974e+01  1.5251e+01
  1.4869e+01  1.4695e+01  1.4194e+01  1.4265e+01  1.5015e+01  1.4618e+01  1.4717e+01  1.3398e+01  1.2655e+01  1.4836e+01
  1.5427e+01  1.4948e+01  1.6067e+01  1.6712e+01  1.6027e+01  1.5519e+01  1.3876e+01  1.4390e+01  1.4769e+01  1.5367e+01
  1.3977e+01  1.2665e+01  1.3200e+01  1.2681e+01  1.1592e+01  1.0852e+01  1.1852e+01  1.1698e+01  1.1193e+01  1.2394e+01