# MODFLOW2000 River Package
PARAMETER  0  0
        50        50
        50         0                      Stress Period 1
         1         1         1 85.00000010.0000000   75.0000         1
         1         2         1 85.00000010.0000000   75.0000         1
         1         3         1 85.00000010.0000000   75.0000         1
         1         4         1 85.00000010.0000000   75.0000         1
         1         5         1 85.00000010.0000000   75.0000         1
         1         6         1 85.00000010.0000000   75.0000         1
         1         7         1 85.00000010.0000000   75.0000         1
         1         8         1 85.00000010.0000000   75.0000         1
         1         9         1 85.00000010.0000000   75.0000         1
         1        10         1 85.00000010.0000000   75.0000         1
         1        11         1 85.00000010.0000000   75.0000         1
         1        12         1 85.00000010.0000000   75.0000         1
         1        13         1 85.00000010.0000000   75.0000         1
         1        14         1 85.00000010.0000000   75.0000         1
         1        15         1 85.00000010.0000000   75.0000         1
         1        16         1 85.00000010.0000000   75.0000         1
         1        17         1 85.00000010.0000000   75.0000         1
         1        18         1 85.00000010.0000000   75.0000         1
         1        19         1 85.00000010.0000000   75.0000         1
         1        20         1 85.00000010.0000000   75.0000         1
         1        21         1 85.00000010.0000000   75.0000         1
         1        22         1 85.00000010.0000000   75.0000         1
         1        23         1 85.00000010.0000000   75.0000         1
         1        24         1 85.00000010.0000000   75.0000         1
         1        25         1 85.00000010.0000000   75.0000         1
         1        26         1 85.00000010.0000000   75.0000         1
         1        27         1 85.00000010.0000000   75.0000         1
         1        28         1 85.00000010.0000000   75.0000         1
         1        29         1 85.00000010.0000000   75.0000         1
         1        30         1 85.00000010.0000000   75.0000         1
         1        31         1 85.00000010.0000000   75.0000         1
         1        32         1 85.00000010.0000000   75.0000         1
         1        33         1 85.00000010.0000000   75.0000         1
         1        34         1 85.00000010.0000000   75.0000         1
         1        35         1 85.00000010.0000000   75.0000         1
         1        36         1 85.00000010.0000000   75.0000         1
         1        37         1 85.00000010.0000000   75.0000         1
         1        38         1 85.00000010.0000000   75.0000         1
         1        39         1 85.00000010.0000000   75.0000         1
         1        40         1 85.00000010.0000000   75.0000         1
         1        41         1 85.00000010.0000000   75.0000         1
         1        42         1 85.00000010.0000000   75.0000         1
         1        43         1 85.00000010.0000000   75.0000         1
         1        44         1 85.00000010.0000000   75.0000         1
         1        45         1 85.00000010.0000000   75.0000         1
         1        46         1 85.00000010.0000000   75.0000         1
         1        47         1 85.00000010.0000000   75.0000         1
         1        48         1 85.00000010.0000000   75.0000         1
         1        49         1 85.00000010.0000000   75.0000         1
         1        50         1 85.00000010.0000000   75.0000         1
                 50         0                      Stress Period 2
         1         1         1 85.00000010.0000000   75.0000         1
         1         2         1 85.00000010.0000000   75.0000         1
         1         3         1 85.00000010.0000000   75.0000         1
         1         4         1 85.00000010.0000000   75.0000         1
         1         5         1 85.00000010.0000000   75.0000         1
         1         6         1 85.00000010.0000000   75.0000         1
         1         7         1 85.00000010.0000000   75.0000         1
         1         8         1 85.00000010.0000000   75.0000         1
         1         9         1 85.00000010.0000000   75.0000         1
         1        10         1 85.00000010.0000000   75.0000         1
         1        11         1 85.00000010.0000000   75.0000         1
         1        12         1 85.00000010.0000000   75.0000         1
         1        13         1 85.00000010.0000000   75.0000         1
         1        14         1 85.00000010.0000000   75.0000         1
         1        15         1 85.00000010.0000000   75.0000         1
         1        16         1 85.00000010.0000000   75.0000         1
         1        17         1 85.00000010.0000000   75.0000         1
         1        18         1 85.00000010.0000000   75.0000         1
         1        19         1 85.00000010.0000000   75.0000         1
         1        20         1 85.00000010.0000000   75.0000         1
         1        21         1 85.00000010.0000000   75.0000         1
         1        22         1 85.00000010.0000000   75.0000         1
         1        23         1 85.00000010.0000000   75.0000         1
         1        24         1 85.00000010.0000000   75.0000         1
         1        25         1 85.00000010.0000000   75.0000         1
         1        26         1 85.00000010.0000000   75.0000         1
         1        27         1 85.00000010.0000000   75.0000         1
         1        28         1 85.00000010.0000000   75.0000         1
         1        29         1 85.00000010.0000000   75.0000         1
         1        30         1 85.00000010.0000000   75.0000         1
         1        31         1 85.00000010.0000000   75.0000         1
         1        32         1 85.00000010.0000000   75.0000         1
         1        33         1 85.00000010.0000000   75.0000         1
         1        34         1 85.00000010.0000000   75.0000         1
         1        35         1 85.00000010.0000000   75.0000         1
         1        36         1 85.00000010.0000000   75.0000         1
         1        37         1 85.00000010.0000000   75.0000         1
         1        38         1 85.00000010.0000000   75.0000         1
         1        39         1 85.00000010.0000000   75.0000         1
         1        40         1 85.00000010.0000000   75.0000         1
         1        41         1 85.00000010.0000000   75.0000         1
         1        42         1 85.00000010.0000000   75.0000         1
         1        43         1 85.00000010.0000000   75.0000         1
         1        44         1 85.00000010.0000000   75.0000         1
         1        45         1 85.00000010.0000000   75.0000         1
         1        46         1 85.00000010.0000000   75.0000         1
         1        47         1 85.00000010.0000000   75.0000         1
         1        48         1 85.00000010.0000000   75.0000         1
         1        49         1 85.00000010.0000000   75.0000         1
         1        50         1 85.00000010.0000000   75.0000         1
                 50         0                      Stress Period 3
         1         1         1 85.00000010.0000000   75.0000         1
         1         2         1 85.00000010.0000000   75.0000         1
         1         3         1 85.00000010.0000000   75.0000         1
         1         4         1 85.00000010.0000000   75.0000         1
         1         5         1 85.00000010.0000000   75.0000         1
         1         6         1 85.00000010.0000000   75.0000         1
         1         7         1 85.00000010.0000000   75.0000         1
         1         8         1 85.00000010.0000000   75.0000         1
         1         9         1 85.00000010.0000000   75.0000         1
         1        10         1 85.00000010.0000000   75.0000         1
         1        11         1 85.00000010.0000000   75.0000         1
         1        12         1 85.00000010.0000000   75.0000         1
         1        13         1 85.00000010.0000000   75.0000         1
         1        14         1 85.00000010.0000000   75.0000         1
         1        15         1 85.00000010.0000000   75.0000         1
         1        16         1 85.00000010.0000000   75.0000         1
         1        17         1 85.00000010.0000000   75.0000         1
         1        18         1 85.00000010.0000000   75.0000         1
         1        19         1 85.00000010.0000000   75.0000         1
         1        20         1 85.00000010.0000000   75.0000         1
         1        21         1 85.00000010.0000000   75.0000         1
         1        22         1 85.00000010.0000000   75.0000         1
         1        23         1 85.00000010.0000000   75.0000         1
         1        24         1 85.00000010.0000000   75.0000         1
         1        25         1 85.00000010.0000000   75.0000         1
         1        26         1 85.00000010.0000000   75.0000         1
         1        27         1 85.00000010.0000000   75.0000         1
         1        28         1 85.00000010.0000000   75.0000         1
         1        29         1 85.00000010.0000000   75.0000         1
         1        30         1 85.00000010.0000000   75.0000         1
         1        31         1 85.00000010.0000000   75.0000         1
         1        32         1 85.00000010.0000000   75.0000         1
         1        33         1 85.00000010.0000000   75.0000         1
         1        34         1 85.00000010.0000000   75.0000         1
         1        35         1 85.00000010.0000000   75.0000         1
         1        36         1 85.00000010.0000000   75.0000         1
         1        37         1 85.00000010.0000000   75.0000         1
         1        38         1 85.00000010.0000000   75.0000         1
         1        39         1 85.00000010.0000000   75.0000         1
         1        40         1 85.00000010.0000000   75.0000         1
         1        41         1 85.00000010.0000000   75.0000         1
         1        42         1 85.00000010.0000000   75.0000         1
         1        43         1 85.00000010.0000000   75.0000         1
         1        44         1 85.00000010.0000000   75.0000         1
         1        45         1 85.00000010.0000000   75.0000         1
         1        46         1 85.00000010.0000000   75.0000         1
         1        47         1 85.00000010.0000000   75.0000         1
         1        48         1 85.00000010.0000000   75.0000         1
         1        49         1 85.00000010.0000000   75.0000         1
         1        50         1 85.00000010.0000000   75.0000         1
                 50         0                      Stress Period 4
         1         1         1 85.00000010.0000000   75.0000         1
         1         2         1 85.00000010.0000000   75.0000         1
         1         3         1 85.00000010.0000000   75.0000         1
         1         4         1 85.00000010.0000000   75.0000         1
         1         5         1 85.00000010.0000000   75.0000         1
         1         6         1 85.00000010.0000000   75.0000         1
         1         7         1 85.00000010.0000000   75.0000         1
         1         8         1 85.00000010.0000000   75.0000         1
         1         9         1 85.00000010.0000000   75.0000         1
         1        10         1 85.00000010.0000000   75.0000         1
         1        11         1 85.00000010.0000000   75.0000         1
         1        12         1 85.00000010.0000000   75.0000         1
         1        13         1 85.00000010.0000000   75.0000         1
         1        14         1 85.00000010.0000000   75.0000         1
         1        15         1 85.00000010.0000000   75.0000         1
         1        16         1 85.00000010.0000000   75.0000         1
         1        17         1 85.00000010.0000000   75.0000         1
         1        18         1 85.00000010.0000000   75.0000         1
         1        19         1 85.00000010.0000000   75.0000         1
         1        20         1 85.00000010.0000000   75.0000         1
         1        21         1 85.00000010.0000000   75.0000         1
         1        22         1 85.00000010.0000000   75.0000         1
         1        23         1 85.00000010.0000000   75.0000         1
         1        24         1 85.00000010.0000000   75.0000         1
         1        25         1 85.00000010.0000000   75.0000         1
         1        26         1 85.00000010.0000000   75.0000         1
         1        27         1 85.00000010.0000000   75.0000         1
         1        28         1 85.00000010.0000000   75.0000         1
         1        29         1 85.00000010.0000000   75.0000         1
         1        30         1 85.00000010.0000000   75.0000         1
         1        31         1 85.00000010.0000000   75.0000         1
         1        32         1 85.00000010.0000000   75.0000         1
         1        33         1 85.00000010.0000000   75.0000         1
         1        34         1 85.00000010.0000000   75.0000         1
         1        35         1 85.00000010.0000000   75.0000         1
         1        36         1 85.00000010.0000000   75.0000         1
         1        37         1 85.00000010.0000000   75.0000         1
         1        38         1 85.00000010.0000000   75.0000         1
         1        39         1 85.00000010.0000000   75.0000         1
         1        40         1 85.00000010.0000000   75.0000         1
         1        41         1 85.00000010.0000000   75.0000         1
         1        42         1 85.00000010.0000000   75.0000         1
         1        43         1 85.00000010.0000000   75.0000         1
         1        44         1 85.00000010.0000000   75.0000         1
         1        45         1 85.00000010.0000000   75.0000         1
         1        46         1 85.00000010.0000000   75.0000         1
         1        47         1 85.00000010.0000000   75.0000         1
         1        48         1 85.00000010.0000000   75.0000         1
         1        49         1 85.00000010.0000000   75.0000         1
         1        50         1 85.00000010.0000000   75.0000         1
                 50         0                      Stress Period 5
         1         1         1 85.00000010.0000000   75.0000         1
         1         2         1 85.00000010.0000000   75.0000         1
         1         3         1 85.00000010.0000000   75.0000         1
         1         4         1 85.00000010.0000000   75.0000         1
         1         5         1 85.00000010.0000000   75.0000         1
         1         6         1 85.00000010.0000000   75.0000         1
         1         7         1 85.00000010.0000000   75.0000         1
         1         8         1 85.00000010.0000000   75.0000         1
         1         9         1 85.00000010.0000000   75.0000         1
         1        10         1 85.00000010.0000000   75.0000         1
         1        11         1 85.00000010.0000000   75.0000         1
         1        12         1 85.00000010.0000000   75.0000         1
         1        13         1 85.00000010.0000000   75.0000         1
         1        14         1 85.00000010.0000000   75.0000         1
         1        15         1 85.00000010.0000000   75.0000         1
         1        16         1 85.00000010.0000000   75.0000         1
         1        17         1 85.00000010.0000000   75.0000         1
         1        18         1 85.00000010.0000000   75.0000         1
         1        19         1 85.00000010.0000000   75.0000         1
         1        20         1 85.00000010.0000000   75.0000         1
         1        21         1 85.00000010.0000000   75.0000         1
         1        22         1 85.00000010.0000000   75.0000         1
         1        23         1 85.00000010.0000000   75.0000         1
         1        24         1 85.00000010.0000000   75.0000         1
         1        25         1 85.00000010.0000000   75.0000         1
         1        26         1 85.00000010.0000000   75.0000         1
         1        27         1 85.00000010.0000000   75.0000         1
         1        28         1 85.00000010.0000000   75.0000         1
         1        29         1 85.00000010.0000000   75.0000         1
         1        30         1 85.00000010.0000000   75.0000         1
         1        31         1 85.00000010.0000000   75.0000         1
         1        32         1 85.00000010.0000000   75.0000         1
         1        33         1 85.00000010.0000000   75.0000         1
         1        34         1 85.00000010.0000000   75.0000         1
         1        35         1 85.00000010.0000000   75.0000         1
         1        36         1 85.00000010.0000000   75.0000         1
         1        37         1 85.00000010.0000000   75.0000         1
         1        38         1 85.00000010.0000000   75.0000         1
         1        39         1 85.00000010.0000000   75.0000         1
         1        40         1 85.00000010.0000000   75.0000         1
         1        41         1 85.00000010.0000000   75.0000         1
         1        42         1 85.00000010.0000000   75.0000         1
         1        43         1 85.00000010.0000000   75.0000         1
         1        44         1 85.00000010.0000000   75.0000         1
         1        45         1 85.00000010.0000000   75.0000         1
         1        46         1 85.00000010.0000000   75.0000         1
         1        47         1 85.00000010.0000000   75.0000         1
         1        48         1 85.00000010.0000000   75.0000         1
         1        49         1 85.00000010.0000000   75.0000         1
         1        50         1 85.00000010.0000000   75.0000         1
                 50         0                      Stress Period 6
         1         1         1 85.00000010.0000000   75.0000         1
         1         2         1 85.00000010.0000000   75.0000         1
         1         3         1 85.00000010.0000000   75.0000         1
         1         4         1 85.00000010.0000000   75.0000         1
         1         5         1 85.00000010.0000000   75.0000         1
         1         6         1 85.00000010.0000000   75.0000         1
         1         7         1 85.00000010.0000000   75.0000         1
         1         8         1 85.00000010.0000000   75.0000         1
         1         9         1 85.00000010.0000000   75.0000         1
         1        10         1 85.00000010.0000000   75.0000         1
         1        11         1 85.00000010.0000000   75.0000         1
         1        12         1 85.00000010.0000000   75.0000         1
         1        13         1 85.00000010.0000000   75.0000         1
         1        14         1 85.00000010.0000000   75.0000         1
         1        15         1 85.00000010.0000000   75.0000         1
         1        16         1 85.00000010.0000000   75.0000         1
         1        17         1 85.00000010.0000000   75.0000         1
         1        18         1 85.00000010.0000000   75.0000         1
         1        19         1 85.00000010.0000000   75.0000         1
         1        20         1 85.00000010.0000000   75.0000         1
         1        21         1 85.00000010.0000000   75.0000         1
         1        22         1 85.00000010.0000000   75.0000         1
         1        23         1 85.00000010.0000000   75.0000         1
         1        24         1 85.00000010.0000000   75.0000         1
         1        25         1 85.00000010.0000000   75.0000         1
         1        26         1 85.00000010.0000000   75.0000         1
         1        27         1 85.00000010.0000000   75.0000         1
         1        28         1 85.00000010.0000000   75.0000         1
         1        29         1 85.00000010.0000000   75.0000         1
         1        30         1 85.00000010.0000000   75.0000         1
         1        31         1 85.00000010.0000000   75.0000         1
         1        32         1 85.00000010.0000000   75.0000         1
         1        33         1 85.00000010.0000000   75.0000         1
         1        34         1 85.00000010.0000000   75.0000         1
         1        35         1 85.00000010.0000000   75.0000         1
         1        36         1 85.00000010.0000000   75.0000         1
         1        37         1 85.00000010.0000000   75.0000         1
         1        38         1 85.00000010.0000000   75.0000         1
         1        39         1 85.00000010.0000000   75.0000         1
         1        40         1 85.00000010.0000000   75.0000         1
         1        41         1 85.00000010.0000000   75.0000         1
         1        42         1 85.00000010.0000000   75.0000         1
         1        43         1 85.00000010.0000000   75.0000         1
         1        44         1 85.00000010.0000000   75.0000         1
         1        45         1 85.00000010.0000000   75.0000         1
         1        46         1 85.00000010.0000000   75.0000         1
         1        47         1 85.00000010.0000000   75.0000         1
         1        48         1 85.00000010.0000000   75.0000         1
         1        49         1 85.00000010.0000000   75.0000         1
         1        50         1 85.00000010.0000000   75.0000         1
                 50         0                      Stress Period 7
         1         1         1 85.00000010.0000000   75.0000         1
         1         2         1 85.00000010.0000000   75.0000         1
         1         3         1 85.00000010.0000000   75.0000         1
         1         4         1 85.00000010.0000000   75.0000         1
         1         5         1 85.00000010.0000000   75.0000         1
         1         6         1 85.00000010.0000000   75.0000         1
         1         7         1 85.00000010.0000000   75.0000         1
         1         8         1 85.00000010.0000000   75.0000         1
         1         9         1 85.00000010.0000000   75.0000         1
         1        10         1 85.00000010.0000000   75.0000         1
         1        11         1 85.00000010.0000000   75.0000         1
         1        12         1 85.00000010.0000000   75.0000         1
         1        13         1 85.00000010.0000000   75.0000         1
         1        14         1 85.00000010.0000000   75.0000         1
         1        15         1 85.00000010.0000000   75.0000         1
         1        16         1 85.00000010.0000000   75.0000         1
         1        17         1 85.00000010.0000000   75.0000         1
         1        18         1 85.00000010.0000000   75.0000         1
         1        19         1 85.00000010.0000000   75.0000         1
         1        20         1 85.00000010.0000000   75.0000         1
         1        21         1 85.00000010.0000000   75.0000         1
         1        22         1 85.00000010.0000000   75.0000         1
         1        23         1 85.00000010.0000000   75.0000         1
         1        24         1 85.00000010.0000000   75.0000         1
         1        25         1 85.00000010.0000000   75.0000         1
         1        26         1 85.00000010.0000000   75.0000         1
         1        27         1 85.00000010.0000000   75.0000         1
         1        28         1 85.00000010.0000000   75.0000         1
         1        29         1 85.00000010.0000000   75.0000         1
         1        30         1 85.00000010.0000000   75.0000         1
         1        31         1 85.00000010.0000000   75.0000         1
         1        32         1 85.00000010.0000000   75.0000         1
         1        33         1 85.00000010.0000000   75.0000         1
         1        34         1 85.00000010.0000000   75.0000         1
         1        35         1 85.00000010.0000000   75.0000         1
         1        36         1 85.00000010.0000000   75.0000         1
         1        37         1 85.00000010.0000000   75.0000         1
         1        38         1 85.00000010.0000000   75.0000         1
         1        39         1 85.00000010.0000000   75.0000         1
         1        40         1 85.00000010.0000000   75.0000         1
         1        41         1 85.00000010.0000000   75.0000         1
         1        42         1 85.00000010.0000000   75.0000         1
         1        43         1 85.00000010.0000000   75.0000         1
         1        44         1 85.00000010.0000000   75.0000         1
         1        45         1 85.00000010.0000000   75.0000         1
         1        46         1 85.00000010.0000000   75.0000         1
         1        47         1 85.00000010.0000000   75.0000         1
         1        48         1 85.00000010.0000000   75.0000         1
         1        49         1 85.00000010.0000000   75.0000         1
         1        50         1 85.00000010.0000000   75.0000         1
                 50         0                      Stress Period 8
         1         1         1 85.00000010.0000000   75.0000         1
         1         2         1 85.00000010.0000000   75.0000         1
         1         3         1 85.00000010.0000000   75.0000         1
         1         4         1 85.00000010.0000000   75.0000         1
         1         5         1 85.00000010.0000000   75.0000         1
         1         6         1 85.00000010.0000000   75.0000         1
         1         7         1 85.00000010.0000000   75.0000         1
         1         8         1 85.00000010.0000000   75.0000         1
         1         9         1 85.00000010.0000000   75.0000         1
         1        10         1 85.00000010.0000000   75.0000         1
         1        11         1 85.00000010.0000000   75.0000         1
         1        12         1 85.00000010.0000000   75.0000         1
         1        13         1 85.00000010.0000000   75.0000         1
         1        14         1 85.00000010.0000000   75.0000         1
         1        15         1 85.00000010.0000000   75.0000         1
         1        16         1 85.00000010.0000000   75.0000         1
         1        17         1 85.00000010.0000000   75.0000         1
         1        18         1 85.00000010.0000000   75.0000         1
         1        19         1 85.00000010.0000000   75.0000         1
         1        20         1 85.00000010.0000000   75.0000         1
         1        21         1 85.00000010.0000000   75.0000         1
         1        22         1 85.00000010.0000000   75.0000         1
         1        23         1 85.00000010.0000000   75.0000         1
         1        24         1 85.00000010.0000000   75.0000         1
         1        25         1 85.00000010.0000000   75.0000         1
         1        26         1 85.00000010.0000000   75.0000         1
         1        27         1 85.00000010.0000000   75.0000         1
         1        28         1 85.00000010.0000000   75.0000         1
         1        29         1 85.00000010.0000000   75.0000         1
         1        30         1 85.00000010.0000000   75.0000         1
         1        31         1 85.00000010.0000000   75.0000         1
         1        32         1 85.00000010.0000000   75.0000         1
         1        33         1 85.00000010.0000000   75.0000         1
         1        34         1 85.00000010.0000000   75.0000         1
         1        35         1 85.00000010.0000000   75.0000         1
         1        36         1 85.00000010.0000000   75.0000         1
         1        37         1 85.00000010.0000000   75.0000         1
         1        38         1 85.00000010.0000000   75.0000         1
         1        39         1 85.00000010.0000000   75.0000         1
         1        40         1 85.00000010.0000000   75.0000         1
         1        41         1 85.00000010.0000000   75.0000         1
         1        42         1 85.00000010.0000000   75.0000         1
         1        43         1 85.00000010.0000000   75.0000         1
         1        44         1 85.00000010.0000000   75.0000         1
         1        45         1 85.00000010.0000000   75.0000         1
         1        46         1 85.00000010.0000000   75.0000         1
         1        47         1 85.00000010.0000000   75.0000         1
         1        48         1 85.00000010.0000000   75.0000         1
         1        49         1 85.00000010.0000000   75.0000         1
         1        50         1 85.00000010.0000000   75.0000         1
                 50         0                      Stress Period 9
         1         1         1 85.00000010.0000000   75.0000         1
         1         2         1 85.00000010.0000000   75.0000         1
         1         3         1 85.00000010.0000000   75.0000         1
         1         4         1 85.00000010.0000000   75.0000         1
         1         5         1 85.00000010.0000000   75.0000         1
         1         6         1 85.00000010.0000000   75.0000         1
         1         7         1 85.00000010.0000000   75.0000         1
         1         8         1 85.00000010.0000000   75.0000         1
         1         9         1 85.00000010.0000000   75.0000         1
         1        10         1 85.00000010.0000000   75.0000         1
         1        11         1 85.00000010.0000000   75.0000         1
         1        12         1 85.00000010.0000000   75.0000         1
         1        13         1 85.00000010.0000000   75.0000         1