# MODFLOW2000 Discretization File
 3  50  50  10  4  2
 0 0 0
         0   100.000(10E12.4)                    0     DELTA-X or C
         0   100.000(10E12.4)                    0     DELTA-Y or R
        29     1.000(10e12.4)                   -1     TOP of Model
  9.0906e+01  9.0037e+01  9.3580e+01  9.4699e+01  9.5117e+01  9.6525e+01  9.6674e+01  9.6738e+01  9.9270e+01  9.9858e+01
  9.9616e+01  9.9857e+01  1.0028e+02  1.0336e+02  1.0342e+02  1.0492e+02  1.0568e+02  1.0693e+02  1.0772e+02  1.0756e+02
  1.0748e+02  1.0766e+02  1.0669e+02  1.0805e+02  1.0839e+02  1.0880e+02  1.0872e+02  1.0854e+02  1.0906e+02  1.0758e+02
  1.0914e+02  1.0785e+02  1.0804e+02  1.0817e+02  1.0859e+02  1.0947e+02  1.0948e+02  1.0874e+02  1.0730e+02  1.0724e+02
  1.0770e+02  1.0694e+02  1.0644e+02  1.0546e+02  1.0666e+02  1.0755e+02  1.0845e+02  1.0951e+02  1.0980e+02  1.1127e+02
  9.0841e+01  9.0554e+01  9.2493e+01  9.3610e+01  9.4303e+01  9.5926e+01  9.6605e+01  9.7179e+01  9.8505e+01  9.8882e+01
  9.7301e+01  9.8133e+01  1.0004e+02  1.0172e+02  1.0342e+02  1.0537e+02  1.0694e+02  1.0695e+02  1.0678e+02  1.0756e+02
  1.0697e+02  1.0827e+02  1.0790e+02  1.0747e+02  1.0758e+02  1.0877e+02  1.1058e+02  1.0981e+02  1.0851e+02  1.0868e+02
  1.0876e+02  1.0803e+02  1.0846e+02  1.0737e+02  1.0821e+02  1.0865e+02  1.0693e+02  1.0650e+02  1.0664e+02  1.0771e+02
  1.0777e+02  1.0728e+02  1.0697e+02  1.0623e+02  1.0704e+02  1.0708e+02  1.0696e+02  1.0832e+02  1.0905e+02  1.1007e+02
  9.0852e+01  9.2585e+01  9.2485e+01  9.1920e+01  9.3269e+01  9.4849e+01  9.4844e+01  9.6338e+01  9.7724e+01  9.8451e+01
  9.7341e+01  9.7999e+01  1.0041e+02  1.0199e+02  1.0370e+02  1.0490e+02  1.0719e+02  1.0859e+02  1.0765e+02  1.0787e+02
  1.0853e+02  1.0941e+02  1.0898e+02  1.0808e+02  1.0858e+02  1.1001e+02  1.0960e+02  1.0985e+02  1.1059e+02  1.1064e+02
  1.0998e+02  1.0885e+02  1.0871e+02  1.0857e+02  1.0697e+02  1.0675e+02  1.0629e+02  1.0510e+02  1.0420e+02  1.0437e+02
  1.0571e+02  1.0635e+02  1.0708e+02  1.0660e+02  1.0654e+02  1.0656e+02  1.0710e+02  1.0821e+02  1.0992e+02  1.0989e+02
  8.9211e+01  9.2011e+01  9.3993e+01  9.4560e+01  9.3822e+01  9.6073e+01  9.6293e+01  9.7150e+01  9.7807e+01  9.9576e+01
  9.9610e+01  1.0071e+02  1.0227e+02  1.0241e+02  1.0383e+02  1.0582e+02  1.0724e+02  1.0868e+02  1.0777e+02  1.0865e+02
  1.0984e+02  1.1011e+02  1.0897e+02  1.0925e+02  1.0929e+02  1.0989e+02  1.1016e+02  1.0968e+02  1.0896e+02  1.1006e+02
  1.0964e+02  1.0915e+02  1.0791e+02  1.0750e+02  1.0673e+02  1.0584e+02  1.0603e+02  1.0474e+02  1.0493e+02  1.0258e+02
  1.0313e+02  1.0488e+02  1.0506e+02  1.0673e+02  1.0711e+02  1.0712e+02  1.0667e+02  1.0785e+02  1.0779e+02  1.0760e+02
  9.1428e+01  9.1779e+01  9.3695e+01  9.3826e+01  9.5845e+01  9.6503e+01  9.6445e+01  9.7242e+01  9.8590e+01  9.9274e+01
  1.0006e+02  1.0096e+02  1.0316e+02  1.0484e+02  1.0614e+02  1.0748e+02  1.0767e+02  1.0969e+02  1.0824e+02  1.0929e+02
  1.1053e+02  1.1023e+02  1.0893e+02  1.0993e+02  1.1004e+02  1.0909e+02  1.0775e+02  1.0859e+02  1.0857e+02  1.0827e+02
  1.0792e+02  1.0863e+02  1.0820e+02  1.0712e+02  1.0594e+02  1.0596e+02  1.0492e+02  1.0411e+02  1.0331e+02  1.0323e+02
  1.0321e+02  1.0439e+02  1.0499e+02  1.0619e+02  1.0690e+02  1.0610e+02  1.0682e+02  1.0685e+02  1.0770e+02  1.0798e+02
  9.1262e+01  9.3266e+01  9.3873e+01  9.5070e+01  9.7494e+01  9.7399e+01  9.9100e+01  1.0030e+02  1.0106e+02  1.0205e+02
  1.0179e+02  1.0229e+02  1.0448e+02  1.0683e+02  1.0702e+02  1.0799e+02  1.0942e+02  1.0892e+02  1.0874e+02  1.0951e+02
  1.1051e+02  1.0992e+02  1.0861e+02  1.0731e+02  1.0863e+02  1.0812e+02  1.0860e+02  1.0816e+02  1.0763e+02  1.0725e+02
  1.0788e+02  1.0827e+02  1.0695e+02  1.0598e+02  1.0315e+02  1.0336e+02  1.0221e+02  1.0316e+02  1.0358e+02  1.0379e+02
  1.0278e+02  1.0381e+02  1.0476e+02  1.0472e+02  1.0498e+02  1.0522e+02  1.0713e+02  1.0792e+02  1.0853e+02  1.0925e+02
  9.0737e+01  9.1257e+01  9.3613e+01  9.4879e+01  9.6418e+01  9.7041e+01  9.9247e+01  1.0100e+02  1.0114e+02  1.0176e+02
  1.0384e+02  1.0517e+02  1.0535e+02  1.0612e+02  1.0698e+02  1.0846e+02  1.0831e+02  1.0905e+02  1.1024e+02  1.1013e+02
  1.1117e+02  1.1086e+02  1.1073e+02  1.0897e+02  1.0704e+02  1.0679e+02  1.0886e+02  1.0882e+02  1.0805e+02  1.0692e+02
  1.0609e+02  1.0538e+02  1.0424e+02  1.0291e+02  1.0191e+02  1.0098e+02  1.0161e+02  1.0193e+02  1.0166e+02  1.0081e+02
  1.0143e+02  1.0162e+02  1.0259e+02  1.0239e+02  1.0460e+02  1.0509e+02  1.0596e+02  1.0751e+02  1.0770e+02  1.0837e+02
  9.1440e+01  9.2951e+01  9.3921e+01  9.5289e+01  9.5796e+01  9.7511e+01  1.0036e+02  1.0186e+02  1.0292e+02  1.0355e+02
  1.0427e+02  1.0486e+02  1.0724e+02  1.0701e+02  1.0785e+02  1.0863e+02  1.0871e+02  1.0861e+02  1.0879e+02  1.1232e+02
  1.1144e+02  1.1036e+02  1.0835e+02  1.0857e+02  1.0765e+02  1.0725e+02  1.0767e+02  1.0711e+02  1.0512e+02  1.0504e+02
  1.0522e+02  1.0405e+02  1.0193e+02  1.0021e+02  1.0022e+02  9.8530e+01  9.8871e+01  9.8194e+01  9.9024e+01  9.9618e+01
  1.0021e+02  9.8876e+01  1.0002e+02  1.0223e+02  1.0420e+02  1.0402e+02  1.0598e+02  1.0765e+02  1.0740e+02  1.0951e+02
  9.0862e+01  9.2582e+01  9.3740e+01  9.4192e+01  9.5880e+01  9.7509e+01  9.9781e+01  1.0201e+02  1.0365e+02  1.0447e+02
  1.0499e+02  1.0681e+02  1.0882e+02  1.0889e+02  1.0930e+02  1.0951e+02  1.0959e+02  1.0960e+02  1.0870e+02  1.0850e+02
  1.0918e+02  1.0837e+02  1.0758e+02  1.0647e+02  1.0724e+02  1.0741e+02  1.0878e+02  1.0608e+02  1.0356e+02  1.0251e+02
  1.0230e+02  1.0100e+02  1.0005e+02  9.8480e+01  9.7221e+01  9.7369e+01  9.6736e+01  9.7494e+01  9.7756e+01  9.8949e+01
  9.8214e+01  9.9815e+01  1.0059e+02  1.0311e+02  1.0370e+02  1.0343e+02  1.0468e+02  1.0672e+02  1.0795e+02  1.0797e+02
  9.0807e+01  9.2879e+01  9.3100e+01  9.4391e+01  9.6176e+01  9.8814e+01  1.0106e+02  1.0181e+02  1.0301e+02  1.0493e+02
  1.0570e+02  1.0744e+02  1.0940e+02  1.1022e+02  1.1056e+02  1.1062e+02  1.1055e+02  1.0855e+02  1.0707e+02  1.0726e+02
  1.0790e+02  1.0826e+02  1.0709e+02  1.0659e+02  1.0648e+02  1.0712e+02  1.0591e+02  1.0469e+02  1.0299e+02  1.0130e+02
  1.0046e+02  1.0013e+02  9.8978e+01  9.8124e+01  9.7248e+01  9.6749e+01  9.7374e+01  9.6952e+01  9.8313e+01  9.7150e+01
  9.7293e+01  1.0018e+02  1.0122e+02  1.0298e+02  1.0380e+02  1.0253e+02  1.0460e+02  1.0735e+02  1.0894e+02  1.0852e+02
  9.0636e+01  9.1251e+01  9.2663e+01  9.3930e+01  9.5871e+01  9.8751e+01  1.0119e+02  1.0371e+02  1.0488e+02  1.0541e+02
  1.0687e+02  1.0788e+02  1.0995e+02  1.0908e+02  1.1007e+02  1.0894e+02  1.0772e+02  1.0754e+02  1.0723e+02  1.0677e+02
  1.0668e+02  1.0602e+02  1.0671e+02  1.0572e+02  1.0720e+02  1.0592e+02  1.0443e+02  1.0298e+02  1.0232e+02  9.9808e+01
  9.9289e+01  9.8304e+01  9.8008e+01  9.6526e+01  9.5915e+01  9.6620e+01  9.7983e+01  9.7209e+01  9.7729e+01  9.7790e+01
  9.8115e+01  9.8519e+01  9.8864e+01  1.0096e+02  1.0348e+02  1.0358e+02  1.0305e+02  1.0672e+02  1.0897e+02  1.1027e+02
  9.0165e+01  9.0906e+01  9.1888e+01  9.4732e+01  9.7132e+01  9.9505e+01  1.0265e+02  1.0453e+02  1.0540e+02  1.0689e+02
  1.0843e+02  1.0884e+02  1.0933e+02  1.0966e+02  1.0820e+02  1.0942e+02  1.0752e+02  1.0729e+02  1.0626e+02  1.0555e+02
  1.0593e+02  1.0477e+02  1.0313e+02  1.0371e+02  1.0312e+02  1.0332e+02  1.0153e+02  9.9982e+01  9.9400e+01  9.8830e+01
  9.6353e+01  9.6157e+01  9.4980e+01  9.5337e+01  9.7102e+01  9.7153e+01  9.7081e+01  9.7361e+01  9.8350e+01  9.6812e+01
  9.6822e+01  9.8017e+01  9.9774e+01  1.0188e+02  1.0162e+02  1.0299e+02  1.0507e+02  1.0604e+02  1.0816e+02  1.0982e+02
  9.1667e+01  9.0702e+01  9.2512e+01  9.5076e+01  9.7285e+01  9.9421e+01  1.0371e+02  1.0410e+02  1.0569e+02  1.0777e+02
  1.0817e+02  1.0844e+02  1.1005e+02  1.0955e+02  1.0929e+02  1.0700e+02  1.0605e+02  1.0493e+02  1.0477e+02  1.0425e+02
  1.0350e+02  1.0232e+02  1.0092e+02  1.0182e+02  1.0055e+02  1.0064e+02  1.0031e+02  9.8692e+01  9.7099e+01  9.7331e+01
  9.6410e+01  9.7108e+01  9.5452e+01  9.5163e+01  9.5890e+01  9.6559e+01  9.6416e+01  9.6250e+01  9.6901e+01  9.8696e+01
  9.9550e+01  1.0036e+02  1.0260e+02  1.0412e+02  1.0410e+02  1.0691e+02  1.0742e+02  1.0963e+02  1.0937e+02  1.1033e+02
  9.1671e+01  9.1742e+01  9.2881e+01  9.4922e+01  9.8065e+01  9.9813e+01  1.0122e+02  1.0280e+02  1.0426e+02  1.0569e+02
  1.0575e+02  1.0660e+02  1.0773e+02  1.0858e+02  1.0941e+02  1.0763e+02  1.0642e+02  1.0478e+02  1.0436e+02  1.0369e+02
  1.0309e+02  1.0171e+02  9.9097e+01  9.7147e+01  9.7920e+01  9.7603e+01  9.8057e+01  9.6977e+01  9.5578e+01  9.6374e+01
  9.6590e+01  9.5880e+01  9.5680e+01  9.6067e+01  9.6434e+01  9.7346e+01  9.7237e+01  9.7651e+01  9.7414e+01  9.9503e+01
  1.0140e+02  1.0197e+02  1.0535e+02  1.0665e+02  1.0827e+02  1.0821e+02  1.0929e+02  1.1054e+02  1.1038e+02  1.1142e+02
  9.1398e+01  9.2320e+01  9.3794e+01  9.5259e+01  9.7254e+01  9.8135e+01  1.0033e+02  1.0168e+02  1.0228e+02  1.0437e+02
  1.0462e+02  1.0590e+02  1.0662e+02  1.0710e+02  1.0673e+02  1.0650e+02  1.0641e+02  1.0546e+02  1.0395e+02  1.0156e+02
  1.0074e+02  9.8781e+01  9.7855e+01  9.6754e+01  9.6530e+01  9.6070e+01  9.5536e+01  9.5941e+01  9.5828e+01  9.5812e+01
  9.5297e+01  9.5716e+01  9.8146e+01  9.8587e+01  9.7491e+01  9.7270e+01  9.9583e+01  9.9448e+01  9.9066e+01  9.9899e+01
  1.0280e+02  1.0507e+02  1.0788e+02  1.1008e+02  1.1049e+02  1.1148e+02  1.1116e+02  1.1023e+02  1.0996e+02  1.1077e+02
  9.0146e+01  9.2157e+01  9.4282e+01  9.5387e+01  9.6920e+01  9.8294e+01  9.9781e+01  9.9961e+01  1.0174e+02  1.0229e+02
  1.0362e+02  1.0532e+02  1.0544e+02  1.0610e+02  1.0667e+02  1.0473e+02  1.0553e+02  1.0442e+02  1.0146e+02  1.0040e+02
  1.0044e+02  9.9569e+01  9.8337e+01  9.6930e+01  9.5954e+01  9.5098e+01  9.5498e+01  9.5730e+01  9.5521e+01  9.4847e+01
  9.4660e+01  9.6466e+01  9.8451e+01  9.9665e+01  1.0028e+02  1.0157e+02  1.0192e+02  1.0148e+02  1.0225e+02  1.0306e+02
  1.0493e+02  1.0682e+02  1.0903e+02  1.1014e+02  1.1023e+02  1.1128e+02  1.1120e+02  1.1072e+02  1.0924e+02  1.1003e+02
  9.0646e+01  9.4630e+01  9.6206e+01  9.6048e+01  9.7203e+01  9.7653e+01  9.8494e+01  1.0130e+02  1.0149e+02  1.0274e+02
  1.0328e+02  1.0295e+02  1.0484e+02  1.0541e+02  1.0512e+02  1.0403e+02  1.0315e+02  1.0263e+02  1.0145e+02  1.0024e+02
  9.9450e+01  9.9320e+01  9.8176e+01  9.7547e+01  9.6583e+01  9.6672e+01  9.5870e+01  9.5081e+01  9.4800e+01  9.4562e+01
  9.6873e+01  9.7523e+01  9.9080e+01  9.8501e+01  1.0028e+02  1.0209e+02  1.0297e+02  1.0354e+02  1.0367e+02  1.0463e+02
  1.0678e+02  1.0776e+02  1.0904e+02  1.1000e+02  1.1014e+02  1.0980e+02  1.0999e+02  1.1148e+02  1.0941e+02  1.1036e+02
  9.0617e+01  9.4447e+01  9.5729e+01  9.6738e+01  9.7217e+01  9.8652e+01  9.9252e+01  1.0109e+02  1.0189e+02  1.0249e+02
  1.0288e+02  1.0368e+02  1.0509e+02  1.0493e+02  1.0501e+02  1.0440e+02  1.0398e+02  1.0328e+02  1.0182e+02  1.0105e+02
  1.0004e+02  9.8471e+01  9.7968e+01  9.7592e+01  9.6632e+01  9.5455e+01  9.6955e+01  9.6063e+01  9.4869e+01  9.6252e+01
  9.8590e+01  1.0003e+02  9.9742e+01  9.9788e+01  1.0082e+02  1.0300e+02  1.0464e+02  1.0544e+02  1.0614e+02  1.0524e+02
  1.0573e+02  1.0747e+02  1.0833e+02  1.0979e+02  1.0982e+02  1.0917e+02  1.1083e+02  1.1045e+02  1.0969e+02  1.0822e+02
  9.1832e+01  9.2816e+01  9.5556e+01  9.7429e+01  9.8394e+01  9.9825e+01  1.0199e+02  1.0239e+02  1.0406e+02  1.0520e+02
  1.0397e+02  1.0401e+02  1.0431e+02  1.0312e+02  1.0213e+02  1.0314e+02  1.0338e+02  1.0255e+02  1.0142e+02  1.0014e+02
  9.8378e+01  9.7552e+01  9.6059e+01  9.6998e+01  9.7731e+01  9.7415e+01  9.7239e+01  9.4713e+01  9.4888e+01  9.6470e+01
  9.8457e+01  9.9575e+01  1.0078e+02  1.0198e+02  1.0372e+02  1.0507e+02  1.0469e+02  1.0575e+02  1.0796e+02  1.0701e+02
  1.0642e+02  1.0689e+02  1.0740e+02  1.0888e+02  1.0984e+02  1.1002e+02  1.0999e+02  1.0936e+02  1.0904e+02  1.0902e+02
  9.3773e+01  9.4289e+01  9.4608e+01  9.6830e+01  9.8983e+01  1.0242e+02  1.0376e+02  1.0481e+02  1.0496e+02  1.0503e+02
  1.0417e+02  1.0494e+02  1.0360e+02  1.0287e+02  1.0337e+02  1.0091e+02  1.0042e+02  1.0061e+02  1.0016e+02  9.8450e+01
  9.8178e+01  9.7092e+01  9.8049e+01  9.7798e+01  9.7423e+01  9.7559e+01  9.6836e+01  9.5818e+01  9.6292e+01  9.6590e+01
  9.8437e+01  9.8713e+01  9.9468e+01  1.0044e+02  1.0442e+02  1.0581e+02  1.0740e+02  1.0701e+02  1.0825e+02  1.0833e+02
  1.0978e+02  1.0857e+02  1.0748e+02  1.0815e+02  1.1055e+02  1.1061e+02  1.0909e+02  1.0954e+02  1.1018e+02  1.1095e+02
  9.4526e+01  9.5347e+01  9.6769e+01  9.9340e+01  1.0053e+02  1.0403e+02  1.0547e+02  1.0688e+02  1.0666e+02  1.0523e+02
  1.0640e+02  1.0377e+02  1.0273e+02  1.0259e+02  1.0134e+02  1.0120e+02  9.9558e+01  9.7096e+01  9.6496e+01  9.7441e+01
  9.5887e+01  9.6369e+01  9.5521e+01  9.5912e+01  9.7519e+01  9.6899e+01  9.4987e+01  9.6911e+01  9.9041e+01  9.7903e+01
  9.9296e+01  9.9421e+01  1.0166e+02  1.0097e+02  1.0265e+02  1.0636e+02  1.0682e+02  1.0746e+02  1.0743e+02  1.0738e+02
  1.0898e+02  1.0850e+02  1.0864e+02  1.0893e+02  1.1002e+02  1.1045e+02  1.0908e+02  1.0956e+02  1.0952e+02  1.1008e+02
  9.4475e+01  9.6207e+01  9.7981e+01  1.0037e+02  1.0211e+02  1.0330e+02  1.0505e+02  1.0600e+02  1.0546e+02  1.0618e+02
  1.0547e+02  1.0418e+02  1.0259e+02  1.0066e+02  9.9962e+01  9.9928e+01  9.8779e+01  9.7311e+01  9.8039e+01  9.5909e+01
  9.5378e+01  9.5581e+01  9.4717e+01  9.5869e+01  9.6523e+01  9.5878e+01  9.6628e+01  9.7632e+01  9.8416e+01  9.7980e+01
  9.9681e+01  1.0096e+02  1.0151e+02  1.0183e+02  1.0354e+02  1.0575e+02  1.0580e+02  1.0715e+02  1.0747e+02  1.0766e+02
  1.0883e+02  1.0858e+02  1.0890e+02  1.0893e+02  1.0818e+02  1.0952e+02  1.0967e+02  1.0942e+02  1.0934e+02  1.0948e+02
  9.6412e+01  9.8508e+01  1.0015e+02  1.0257e+02  1.0444e+02  1.0602e+02  1.0730e+02  1.0634e+02  1.0634e+02  1.0604e+02
  1.0504e+02  1.0350e+02  1.0170e+02  9.9416e+01  9.9754e+01  1.0010e+02  9.8328e+01  9.7895e+01  9.8531e+01  9.6118e+01
  9.5214e+01  9.6311e+01  9.4827e+01  9.5030e+01  9.5469e+01  9.4480e+01  9.5932e+01  9.7428e+01  9.9541e+01  9.9429e+01
  1.0044e+02  1.0107e+02  1.0284e+02  1.0206e+02  1.0355e+02  1.0535e+02  1.0556e+02  1.0685e+02  1.0755e+02  1.0823e+02
  1.0861e+02  1.0881e+02  1.1021e+02  1.1074e+02  1.1053e+02  1.0828e+02  1.0763e+02  1.0861e+02  1.1000e+02  1.0954e+02
  9.5069e+01  9.8157e+01  1.0190e+02  1.0294e+02  1.0590e+02  1.0736e+02  1.0769e+02  1.0725e+02  1.0588e+02  1.0494e+02
  1.0248e+02  1.0218e+02  1.0125e+02  1.0049e+02  9.9990e+01  1.0007e+02  9.7999e+01  9.8804e+01  9.6844e+01  9.5676e+01
  9.4882e+01  9.4521e+01  9.4323e+01  9.3589e+01  9.4178e+01  9.5322e+01  9.6324e+01  9.7971e+01  9.9369e+01  9.9593e+01
  1.0132e+02  1.0089e+02  1.0236e+02  1.0334e+02  1.0585e+02  1.0676e+02  1.0686e+02  1.0766e+02  1.0809e+02  1.0846e+02
  1.0919e+02  1.0909e+02  1.0999e+02  1.1031e+02  1.1020e+02  1.0936e+02  1.0956e+02  1.0929e+02  1.0904e+02  1.0918e+02
  9.2311e+01  9.6006e+01  1.0065e+02  1.0270e+02  1.0616e+02  1.0840e+02  1.0684e+02  1.0616e+02  1.0455e+02  1.0379e+02
  1.0260e+02  9.9921e+01  1.0109e+02  9.9588e+01  9.8676e+01  9.7747e+01  9.6974e+01  9.7515e+01  9.6502e+01  9.4458e+01
  9.5491e+01  9.4640e+01  9.4463e+01  9.5327e+01  9.5660e+01  9.4878e+01  9.7656e+01  9.8041e+01  9.9126e+01  9.9786e+01
  1.0062e+02  1.0181e+02  1.0338e+02  1.0433e+02  1.0457e+02  1.0604e+02  1.0735e+02  1.0971e+02  1.0954e+02  1.1016e+02
  1.0965e+02  1.1001e+02  1.1055e+02  1.1061e+02  1.0962e+02  1.0812e+02  1.0691e+02  1.0657e+02  1.0681e+02  1.0565e+02
  9.0340e+01  9.5097e+01  9.9362e+01  1.0184e+02  1.0524e+02  1.0716e+02  1.0489e+02  1.0305e+02  1.0196e+02  1.0090e+02
  9.8872e+01  9.9505e+01  9.9167e+01  9.9412e+01  9.6670e+01  9.6640e+01  9.7025e+01  9.6413e+01  9.6140e+01  9.5510e+01
  9.5562e+01  9.5799e+01  9.4254e+01  9.5642e+01  9.6141e+01  9.6552e+01  9.7564e+01  9.8626e+01  9.8987e+01  9.9505e+01
  9.9970e+01  1.0035e+02  1.0166e+02  1.0187e+02  1.0270e+02  1.0413e+02  1.0624e+02  1.0886e+02  1.1048e+02  1.1183e+02
  1.1067e+02  1.1101e+02  1.0934e+02  1.0853e+02  1.0839e+02  1.0730e+02  1.0776e+02  1.0708e+02  1.0446e+02  1.0374e+02
  8.9992e+01  9.3803e+01  9.7492e+01  9.9384e+01  1.0156e+02  1.0045e+02  1.0052e+02  1.0068e+02  9.8532e+01  9.7092e+01
  9.6884e+01  9.6749e+01  9.6728e+01  9.7829e+01  9.7077e+01  9.6763e+01  9.7017e+01  9.8081e+01  9.6748e+01  9.8609e+01
  9.7217e+01  9.7359e+01  9.6878e+01  9.7208e+01  9.8085e+01  9.7339e+01  9.7521e+01  9.8036e+01  9.7514e+01  9.8472e+01
  9.9018e+01  9.9447e+01  1.0157e+02  1.0068e+02  1.0177e+02  1.0500e+02  1.0597e+02  1.0761e+02  1.0940e+02  1.1044e+02
  1.0919e+02  1.0829e+02  1.0831e+02  1.0934e+02  1.0728e+02  1.0618e+02  1.0555e+02  1.0544e+02  1.0415e+02  1.0417e+02
  8.9564e+01  9.1695e+01  9.4263e+01  9.5703e+01  9.6748e+01  9.6329e+01  9.7333e+01  9.6302e+01  9.6087e+01  9.6112e+01
  9.3769e+01  9.2752e+01  9.3658e+01  9.6783e+01  9.6801e+01  9.6883e+01  9.7391e+01  9.8440e+01  9.7676e+01  9.8206e+01
  9.8366e+01  9.9226e+01  9.8649e+01  9.6861e+01  9.6071e+01  9.7666e+01  9.8451e+01  9.7443e+01  9.7396e+01  9.7165e+01
  9.6924e+01  9.6066e+01  9.9282e+01  1.0014e+02  1.0109e+02  1.0296e+02  1.0502e+02  1.0550e+02  1.0769e+02  1.0840e+02
  1.0797e+02  1.0695e+02  1.0753e+02  1.0748e+02  1.0612e+02  1.0522e+02  1.0505e+02  1.0391e+02  1.0254e+02  1.0248e+02
  8.9092e+01  9.1359e+01  9.2364e+01  9.3434e+01  9.3496e+01  9.3847e+01  9.3454e+01  9.4277e+01  9.5892e+01  9.3743e+01
  9.3402e+01  9.2700e+01  9.3736e+01  9.6443e+01  9.8363e+01  9.9775e+01  9.9633e+01  9.9469e+01  9.9590e+01  9.8915e+01
  9.9128e+01  9.9006e+01  9.8694e+01  9.7342e+01  9.7544e+01  9.7950e+01  9.7819e+01  9.7173e+01  9.6571e+01  9.5909e+01
  9.7146e+01  9.6531e+01  9.7468e+01  9.7339e+01  9.9636e+01  1.0180e+02  1.0311e+02  1.0471e+02  1.0554e+02  1.0583e+02
  1.0684e+02  1.0612e+02  1.0587e+02  1.0563e+02  1.0474e+02  1.0497e+02  1.0320e+02  1.0337e+02  1.0212e+02  1.0118e+02
  8.8812e+01  9.0427e+01  9.0936e+01  9.0751e+01  9.2818e+01  9.2649e+01  9.3751e+01  9.3545e+01  9.2840e+01  9.3529e+01
  9.3743e+01  9.4244e+01  9.4493e+01  9.7821e+01  9.7720e+01  9.9159e+01  1.0114e+02  1.0237e+02  1.0054e+02  1.0009e+02
  9.9631e+01  9.9785e+01  9.9499e+01  9.9477e+01  9.8481e+01  9.9047e+01  9.7987e+01  9.8045e+01  9.7220e+01  9.6906e+01
  9.6613e+01  9.6005e+01  9.7476e+01  9.8098e+01  9.8680e+01  1.0137e+02  1.0182e+02  1.0207e+02  1.0323e+02  1.0356e+02
  1.0353e+02  1.0323e+02  1.0337e+02  1.0296e+02  1.0255e+02  1.0384e+02  1.0235e+02  1.0079e+02  9.9418e+01  9.9991e+01
  8.9188e+01  9.0603e+01  9.1788e+01  9.2912e+01  9.2144e+01  9.2506e+01  9.2458e+01  9.2738e+01  9.2139e+01  9.3912e+01
  9.5592e+01  9.6695e+01  9.6920e+01  9.8488e+01  1.0019e+02  1.0269e+02  1.0305e+02  1.0260e+02  1.0261e+02  1.0204e+02
  1.0088e+02  1.0078e+02  1.0131e+02  1.0081e+02  1.0047e+02  9.9490e+01  9.9182e+01  9.7937e+01  9.7455e+01  9.7235e+01
  9.5397e+01  9.6317e+01  9.6518e+01  9.8222e+01  9.9969e+01  9.9730e+01  1.0050e+02  9.9809e+01  1.0040e+02  1.0111e+02
  1.0105e+02  1.0179e+02  1.0099e+02  1.0082e+02  1.0096e+02  9.9920e+01  9.9807e+01  9.9338e+01  9.9851e+01  9.9755e+01
  8.8786e+01  9.0192e+01  9.2638e+01  9.2597e+01  9.1650e+01  9.1408e+01  9.1762e+01  9.2692e+01  9.4235e+01  9.6170e+01
  9.7282e+01  9.8163e+01  9.9870e+01  1.0021e+02  1.0299e+02  1.0515e+02  1.0594e+02  1.0602e+02  1.0448e+02  1.0495e+02
  1.0390e+02  1.0245e+02  1.0233e+02  1.0278e+02  1.0331e+02  1.0293e+02  1.0159e+02  9.9862e+01  9.9563e+01  9.9045e+01
  9.7619e+01  9.6931e+01  9.8055e+01  9.7970e+01  9.8738e+01  9.9733e+01  9.9178e+01  9.8869e+01  1.0051e+02  9.9309e+01
  9.8386e+01  9.8404e+01  9.8672e+01  9.9345e+01  9.9559e+01  9.9215e+01  9.8091e+01  9.7075e+01  9.8023e+01  9.8991e+01
  8.9868e+01  9.0985e+01  9.2524e+01  9.2825e+01  9.2822e+01  9.3017e+01  9.2249e+01  9.3234e+01  9.5430e+01  9.6764e+01
  9.7166e+01  9.7935e+01  1.0006e+02  1.0256e+02  1.0489e+02  1.0643e+02  1.0716e+02  1.0682e+02  1.0552e+02  1.0725e+02
  1.0623e+02  1.0585e+02  1.0454e+02  1.0444e+02  1.0353e+02  1.0299e+02  1.0245e+02  1.0133e+02  1.0077e+02  1.0084e+02
  1.0003e+02  9.9212e+01  9.9032e+01  9.8623e+01  9.8471e+01  9.7700e+01  9.7720e+01  9.7599e+01  9.9222e+01  9.7638e+01
  9.6853e+01  9.7979e+01  9.6696e+01  9.6406e+01  9.6571e+01  9.7289e+01  9.6452e+01  9.7609e+01  9.7706e+01  9.9679e+01
  8.9910e+01  9.1412e+01  9.2239e+01  9.3064e+01  9.3178e+01  9.3184e+01  9.3482e+01  9.4169e+01  9.5603e+01  9.6867e+01
  9.7707e+01  9.9417e+01  9.9126e+01  1.0157e+02  1.0384e+02  1.0455e+02  1.0655e+02  1.0965e+02  1.0880e+02  1.0817e+02
  1.0764e+02  1.0741e+02  1.0668e+02  1.0617e+02  1.0464e+02  1.0243e+02  1.0310e+02  1.0299e+02  1.0163e+02  1.0262e+02
  1.0231e+02  1.0092e+02  9.9155e+01  9.9199e+01  9.7657e+01  9.8212e+01  9.7283e+01  9.6575e+01  9.6748e+01  9.6609e+01
  9.5704e+01  9.6588e+01  9.6500e+01  9.6362e+01  9.6097e+01  9.6726e+01  9.7290e+01  9.7934e+01  9.8351e+01  9.9862e+01
  9.0228e+01  9.0276e+01  9.1635e+01  9.2629e+01  9.2873e+01  9.2918e+01  9.3597e+01  9.5087e+01  9.5176e+01  9.6767e+01
  9.7210e+01  1.0005e+02  1.0047e+02  1.0212e+02  1.0348e+02  1.0495e+02  1.0735e+02  1.0941e+02  1.0794e+02  1.0680e+02
  1.0736e+02  1.0725e+02  1.0672e+02  1.0625e+02  1.0520e+02  1.0656e+02  1.0517e+02  1.0403e+02  1.0333e+02  1.0380e+02
  1.0264e+02  1.0140e+02  1.0197e+02  9.9403e+01  9.8028e+01  9.7004e+01  9.6165e+01  9.5927e+01  9.6095e+01  9.6087e+01
  9.4769e+01  9.3753e+01  9.5470e+01  9.5919e+01  9.5994e+01  9.6390e+01  9.6076e+01  9.5909e+01  9.7371e+01  9.9772e+01
  8.8925e+01  8.9978e+01  9.1165e+01  9.3075e+01  9.3924e+01  9.4694e+01  9.5781e+01  9.6161e+01  9.6831e+01  9.7538e+01
  9.9155e+01  1.0076e+02  1.0220e+02  1.0340e+02  1.0324e+02  1.0331e+02  1.0461e+02  1.0636e+02  1.0752e+02  1.0835e+02
  1.0829e+02  1.0822e+02  1.0705e+02  1.0633e+02  1.0712e+02  1.0809e+02  1.0875e+02  1.0649e+02  1.0546e+02  1.0381e+02
  1.0334e+02  1.0145e+02  1.0099e+02  9.7986e+01  9.7455e+01  9.6823e+01  9.5433e+01  9.5174e+01  9.5296e+01  9.5998e+01
  9.5607e+01  9.3877e+01  9.5506e+01  9.5887e+01  9.5441e+01  9.7168e+01  9.7492e+01  9.7295e+01  9.7449e+01  9.9140e+01
  8.9952e+01  9.0496e+01  9.1854e+01  9.3299e+01  9.4163e+01  9.5564e+01  9.6074e+01  9.7334e+01  9.8515e+01  9.7570e+01
  1.0148e+02  1.0205e+02  1.0369e+02  1.0428e+02  1.0401e+02  1.0454e+02  1.0464e+02  1.0600e+02  1.0807e+02  1.0768e+02
  1.0687e+02  1.0733e+02  1.0950e+02  1.0901e+02  1.0954e+02  1.0908e+02  1.0843e+02  1.0620e+02  1.0552e+02  1.0474e+02
  1.0302e+02  1.0101e+02  1.0088e+02  9.9909e+01  9.7435e+01  9.6172e+01  9.5112e+01  9.4575e+01  9.4860e+01  9.4343e+01
  9.5274e+01  9.5026e+01  9.5678e+01  9.7666e+01  9.8157e+01  9.7667e+01  9.7560e+01  9.7965e+01  9.8431e+01  9.7800e+01
  9.0201e+01  9.0879e+01  9.0414e+01  9.3200e+01  9.3155e+01  9.4647e+01  9.7176e+01  9.7177e+01  9.9642e+01  1.0079e+02
  1.0137e+02  1.0356e+02  1.0371e+02  1.0451e+02  1.0429e+02  1.0450e+02  1.0489e+02  1.0670e+02  1.0624e+02  1.0605e+02
  1.0596e+02  1.0896e+02  1.0878e+02  1.0855e+02  1.1019e+02  1.0847e+02  1.0761e+02  1.0627e+02  1.0500e+02  1.0447e+02
  1.0350e+02  1.0341e+02  1.0219e+02  1.0050e+02  9.9954e+01  9.7565e+01  9.7374e+01  9.5975e+01  9.7250e+01  9.6166e+01
  9.6246e+01  9.7268e+01  9.6978e+01  9.7169e+01  9.7425e+01  9.8218e+01  9.8605e+01  9.7967e+01  9.9679e+01  9.8506e+01
  8.9827e+01  9.1591e+01  9.3029e+01  9.3000e+01  9.4040e+01  9.5867e+01  9.7256e+01  9.7383e+01  9.9112e+01  1.0010e+02
  1.0063e+02  1.0292e+02  1.0417e+02  1.0347e+02  1.0353e+02  1.0435e+02  1.0488e+02  1.0569e+02  1.0645e+02  1.0692e+02
  1.0723e+02  1.0808e+02  1.0867e+02  1.0872e+02  1.0777e+02  1.0756e+02  1.0641e+02  1.0713e+02  1.0729e+02  1.0549e+02
  1.0438e+02  1.0348e+02  1.0305e+02  1.0147e+02  1.0071e+02  9.7891e+01  9.8396e+01  9.8282e+01  9.8366e+01  9.9043e+01
  9.8717e+01  9.9666e+01  9.8440e+01  9.9557e+01  9.9143e+01  9.8298e+01  9.8209e+01  9.7865e+01  9.7611e+01  9.7673e+01
  9.1884e+01  9.1959e+01  9.3211e+01  9.4407e+01  9.5708e+01  9.7709e+01  9.9577e+01  1.0010e+02  1.0080e+02  1.0038e+02
  1.0089e+02  1.0323e+02  1.0444e+02  1.0477e+02  1.0535e+02  1.0649e+02  1.0597e+02  1.0638e+02  1.0724e+02  1.0650e+02
  1.0796e+02  1.0796e+02  1.0862e+02  1.0713e+02  1.0728e+02  1.0764e+02  1.0768e+02  1.0709e+02  1.0526e+02  1.0602e+02
  1.0506e+02  1.0521e+02  1.0291e+02  1.0156e+02  1.0152e+02  1.0099e+02  1.0017e+02  1.0219e+02  1.0081e+02  1.0045e+02
  1.0124e+02  1.0025e+02  9.9463e+01  9.9494e+01  9.9222e+01  1.0080e+02  9.9428e+01  9.9530e+01  9.7734e+01  9.7494e+01
  9.1284e+01  9.2040e+01  9.3163e+01  9.3660e+01  9.6682e+01  9.7453e+01  9.8674e+01  1.0152e+02  1.0294e+02  1.0179e+02
  1.0290e+02  1.0454e+02  1.0477e+02  1.0582e+02  1.0800e+02  1.0721e+02  1.0778e+02  1.0556e+02  1.0614e+02  1.0655e+02
  1.0821e+02  1.0732e+02  1.0855e+02  1.0644e+02  1.0572e+02  1.0635e+02  1.0563e+02  1.0585e+02  1.0590e+02  1.0733e+02
  1.0495e+02  1.0454e+02  1.0270e+02  1.0306e+02  1.0177e+02  1.0292e+02  1.0240e+02  1.0198e+02  1.0136e+02  1.0185e+02
  1.0192e+02  1.0071e+02  1.0123e+02  1.0277e+02  1.0228e+02  1.0148e+02  1.0098e+02  9.9794e+01  9.8322e+01  9.9589e+01
  9.0922e+01  9.1257e+01  9.1966e+01  9.4140e+01  9.5633e+01  9.6743e+01  9.7966e+01  9.9874e+01  1.0238e+02  1.0351e+02
  1.0514e+02  1.0534e+02  1.0748e+02  1.0783e+02  1.0862e+02  1.0899e+02  1.0817e+02  1.0679e+02  1.0576e+02  1.0652e+02
  1.0870e+02  1.0801e+02  1.0849e+02  1.0673e+02  1.0684e+02  1.0728e+02  1.0655e+02  1.0711e+02  1.0584e+02  1.0568e+02
  1.0493e+02  1.0500e+02  1.0440e+02  1.0437e+02  1.0397e+02  1.0402e+02  1.0361e+02  1.0284e+02  1.0225e+02  1.0360e+02
  1.0407e+02  1.0412e+02  1.0500e+02  1.0513e+02  1.0541e+02  1.0468e+02  1.0281e+02  1.0306e+02  1.0142e+02  1.0147e+02
  9.0266e+01  9.1521e+01  9.2905e+01  9.4004e+01  9.5727e+01  9.7938e+01  9.8688e+01  9.9294e+01  1.0134e+02  1.0309e+02
  1.0423e+02  1.0431e+02  1.0539e+02  1.0694e+02  1.0789e+02  1.0720e+02  1.0577e+02  1.0595e+02  1.0647e+02  1.0662e+02
  1.0784e+02  1.0843e+02  1.0815e+02  1.0902e+02  1.0923e+02  1.0776e+02  1.0827e+02  1.0780e+02  1.0625e+02  1.0781e+02
  1.0660e+02  1.0513e+02  1.0526e+02  1.0476e+02  1.0428e+02  1.0551e+02  1.0460e+02  1.0516e+02  1.0525e+02  1.0400e+02
  1.0499e+02  1.0638e+02  1.0856e+02  1.0907e+02  1.0899e+02  1.0871e+02  1.0628e+02  1.0608e+02  1.0520e+02  1.0387e+02
  8.9813e+01  9.1600e+01  9.3391e+01  9.4878e+01  9.6067e+01  9.7721e+01  9.8739e+01  9.8413e+01  1.0042e+02  1.0167e+02
  1.0438e+02  1.0431e+02  1.0503e+02  1.0638e+02  1.0642e+02  1.0681e+02  1.0568e+02  1.0492e+02  1.0689e+02  1.0647e+02
  1.0712e+02  1.0703e+02  1.0719e+02  1.0779e+02  1.0804e+02  1.0778e+02  1.0756e+02  1.0770e+02  1.0732e+02  1.0696e+02
  1.0667e+02  1.0621e+02  1.0497e+02  1.0464e+02  1.0440e+02  1.0475e+02  1.0439e+02  1.0625e+02  1.0375e+02  1.0488e+02
  1.0716e+02  1.0764e+02  1.0794e+02  1.0973e+02  1.1025e+02  1.0958e+02  1.0830e+02  1.0766e+02  1.0663e+02  1.0644e+02
  8.9278e+01  9.0503e+01  9.3874e+01  9.6098e+01  9.5868e+01  9.8600e+01  9.9072e+01  9.9640e+01  1.0016e+02  1.0230e+02
  1.0407e+02  1.0567e+02  1.0655e+02  1.0551e+02  1.0697e+02  1.0656e+02  1.0682e+02  1.0601e+02  1.0617e+02  1.0629e+02
  1.0655e+02  1.0583e+02  1.0759e+02  1.0678e+02  1.0779e+02  1.0867e+02  1.0762e+02  1.0760e+02  1.0812e+02  1.0719e+02
  1.0622e+02  1.0611e+02  1.0432e+02  1.0388e+02  1.0376e+02  1.0549e+02  1.0566e+02  1.0520e+02  1.0468e+02  1.0663e+02
  1.0682e+02  1.0916e+02  1.0970e+02  1.0934e+02  1.0946e+02  1.0995e+02  1.0986e+02  1.0952e+02  1.0798e+02  1.0721e+02
  8.8931e+01  9.0921e+01  9.4306e+01  9.5047e+01  9.5676e+01  9.7258e+01  9.8792e+01  9.7508e+01  1.0022e+02  1.0238e+02
  1.0358e+02  1.0505e+02  1.0658e+02  1.0504e+02  1.0525e+02  1.0636e+02  1.0754e+02  1.0840e+02  1.0878e+02  1.0816e+02
  1.0680e+02  1.0681e+02  1.0729e+02  1.0680e+02  1.0873e+02  1.0897e+02  1.0753e+02  1.0851e+02  1.0803e+02  1.0680e+02
  1.0601e+02  1.0589e+02  1.0537e+02  1.0463e+02  1.0515e+02  1.0580e+02  1.0657e+02  1.0677e+02  1.0707e+02  1.0818e+02
  1.0819e+02  1.0925e+02  1.0999e+02  1.1105e+02  1.1044e+02  1.1105e+02  1.1085e+02  1.1002e+02  1.1014e+02  1.0923e+02
  8.8588e+01  9.1083e+01  9.4351e+01  9.5485e+01  9.5675e+01  9.6120e+01  9.8281e+01  1.0011e+02  1.0084e+02  1.0169e+02
  1.0300e+02  1.0413e+02  1.0562e+02  1.0723e+02  1.0628e+02  1.0755e+02  1.0826e+02  1.1035e+02  1.0937e+02  1.0895e+02
  1.0897e+02  1.0810e+02  1.0795e+02  1.0856e+02  1.0847e+02  1.0882e+02  1.0862e+02  1.0882e+02  1.0885e+02  1.0732e+02
  1.0661e+02  1.0639e+02  1.0627e+02  1.0576e+02  1.0671e+02  1.0631e+02  1.0812e+02  1.0987e+02  1.0813e+02  1.0959e+02
  1.1071e+02  1.1025e+02  1.1095e+02  1.1116e+02  1.1178e+02  1.1140e+02  1.0982e+02  1.0930e+02  1.1068e+02  1.1048e+02
  9.1167e+01  9.2610e+01  9.4254e+01  9.5618e+01  9.6006e+01  9.6215e+01  9.6400e+01  9.8419e+01  9.9456e+01  1.0146e+02
  1.0210e+02  1.0392e+02  1.0526e+02  1.0672e+02  1.0640e+02  1.0785e+02  1.0935e+02  1.1010e+02  1.0928e+02  1.0914e+02
  1.1002e+02  1.1038e+02  1.0973e+02  1.1050e+02  1.0941e+02  1.0908e+02  1.1007e+02  1.0933e+02  1.0933e+02  1.0906e+02
  1.0936e+02  1.0898e+02  1.0890e+02  1.0897e+02  1.0757e+02  1.0793e+02  1.0879e+02  1.0854e+02  1.0787e+02  1.0860e+02
  1.0910e+02  1.1040e+02  1.1125e+02  1.1163e+02  1.1102e+02  1.1164e+02  1.1059e+02  1.0931e+02  1.0977e+02  1.1021e+02
  9.1490e+01  9.2593e+01  9.3173e+01  9.3992e+01  9.4048e+01  9.5849e+01  9.7062e+01  9.8095e+01  9.8339e+01  9.9664e+01
  1.0344e+02  1.0462e+02  1.0577e+02  1.0642e+02  1.0883e+02  1.0950e+02  1.1058e+02  1.1065e+02  1.1066e+02  1.1122e+02
  1.1134e+02  1.1144e+02  1.1092e+02  1.1098e+02  1.0971e+02  1.0982e+02  1.1001e+02  1.0950e+02  1.0918e+02  1.1016e+02
  1.1044e+02  1.1085e+02  1.1122e+02  1.1147e+02  1.1102e+02  1.0958e+02  1.0936e+02  1.0761e+02  1.0842e+02  1.0863e+02
  1.0910e+02  1.0965e+02  1.1023e+02  1.1029e+02  1.1005e+02  1.1064e+02  1.0992e+02  1.0957e+02  1.0978e+02  1.0978e+02