# MODFLOW2000 Basic Package
#MODFLOW2000 Dataset Imported into Groundwater Vistas
# 
FREE 
CONSTANT  1 (25I3)                      -1
CONSTANT  1 (25I3)                      -1
CONSTANT  1 (25I3)                      -1
99999.0
EXTERNAL  91  1.0  (FREE)  -1
EXTERNAL  92  1.0  (FREE)  -1
EXTERNAL  93  1.0  (FREE)  -1


"OPEN/CLOSE" files are not supported unless full absolute path is provided
Open/Close 'init\Layer_1.ref' 1.000 (FREE)  -1
Open/Close 'init\Layer_2.ref' 1.000 (FREE)  -1
Open/Close 'init\Layer_3.ref' 1.000 (FREE)  -1
