# MODFLOW2000 Zone File
# Groundwater Vistas writes all zones regardless of whether
# they are being used.  These zones include:
#     kxzone##, kzzone##, szone##, rzone, and etzone, where
#     ## is the layer number
  8
kxzone1
         0         1(30I5)                      -1     K Zones for Layer 1
kxzone2
         0         1(30I5)                      -1     K Zones for Layer 2
kxzone3
         0         1(30I5)                      -1     K Zones for Layer 3
szone1
         0         1(50I3)                      -1     S Zones for Layer 1
szone2
         0         1(50I3)                      -1     S Zones for Layer 2
szone3
         0         1(50I3)                      -1     S Zones for Layer 3
rzone1
         0         1(30I5)                      -1     Recharge Zones for Stress Period 1
etzone1
         0         1(50I3)                      -1     ET Zones for Stress Period 1
