#MODFLOW2000
PARAMETER
       832        50
       832         0
         1       151        25 -0.216E+00 150000.000    -3.400         1
         1       142         9  0.762E-01 9500000.00    -4.000         2
         1       143         9  0.762E-01 9500000.00    -4.000         2
         1       144         9  0.762E-01 9500000.00    -4.000         2
         1       145        10  0.762E-01 9500000.00    -4.000         2
         1       145        11  0.762E-01 9500000.00    -4.000         2
         1       145        12  0.762E-01 9500000.00    -4.000         2
         1       146        13  0.762E-01 9500000.00    -4.000         2
         1       146        14  0.762E-01 9500000.00    -4.000         2
         1       146        15  0.762E-01 9500000.00    -4.000         2
         1       147        16  0.762E-01 9500000.00    -4.000         2
         1       147        17  0.762E-01 9500000.00    -4.000         2
         1       148        18  0.762E-01 9500000.00    -4.000         2
         1       148        19  0.762E-01 9500000.00    -4.000         2
         1       148        20  0.762E-01 9500000.00    -4.000         2
         1       149        21  0.762E-01 9500000.00    -4.000         2
         1       149        22  0.762E-01 9500000.00    -4.000         2
         1       150        23  0.762E-01 9500000.00    -4.000         2
         1       150        24  0.762E-01 9500000.00    -4.000         2
         1       150        25  0.762E-01 9500000.00    -4.000         2
         1       126         2  0.325E+00 9500000.00    -4.000         3
         1       127         2  0.325E+00 9500000.00    -4.000         3
         1       128         2  0.325E+00 9500000.00    -4.000         3
         1       129         2  0.325E+00 9500000.00    -4.000         3
         1       130         3  0.325E+00 9500000.00    -4.000         3
         1       131         4  0.325E+00 9500000.00    -4.000         3
         1       132         5  0.325E+00 9500000.00    -4.000         3
         1       132         6  0.325E+00 9500000.00    -4.000         3
         1       133         7  0.325E+00 9500000.00    -4.000         3
         1       134         8  0.325E+00 9500000.00    -4.000         3
         1       135         8  0.325E+00 9500000.00    -4.000         3
         1       136         9  0.325E+00 9500000.00    -4.000         3
         1       137         9  0.325E+00 9500000.00    -4.000         3
         1       138         9  0.325E+00 9500000.00    -4.000         3
         1       139         9  0.325E+00 9500000.00    -4.000         3
         1       140         9  0.325E+00 9500000.00    -4.000         3
         1       141         9  0.325E+00 9500000.00    -4.000         3
         1       124         8  0.325E+00 9500000.00    -4.000         3
         1       124         9  0.325E+00 9500000.00    -4.000         3
         1       125         9  0.325E+00 9500000.00    -4.000         3
         1       126         9  0.325E+00 9500000.00    -4.000         3
         1       127         8  0.325E+00 9500000.00    -4.000         3
         1       128         8  0.325E+00 9500000.00    -4.000         3
         1       129         8  0.325E+00 9500000.00    -4.000         3
         1       130         8  0.325E+00 9500000.00    -4.000         3
         1       131         8  0.325E+00 9500000.00    -4.000         3
         1       132         8  0.325E+00 9500000.00    -4.000         3
         1       133         8  0.325E+00 9500000.00    -4.000         3
         1       109         1  0.613E+00 9500000.00    -4.000         4
         1       110         1  0.613E+00 9500000.00    -4.000         4
         1       111         1  0.613E+00 9500000.00    -4.000         4
         1       112         1  0.613E+00 9500000.00    -4.000         4
         1       113         1  0.613E+00 9500000.00    -4.000         4
         1       114         1  0.613E+00 9500000.00    -4.000         4
         1       115         2  0.613E+00 9500000.00    -4.000         4
         1       116         2  0.613E+00 9500000.00    -4.000         4
         1       117         2  0.613E+00 9500000.00    -4.000         4
         1       118         2  0.613E+00 9500000.00    -4.000         4
         1       119         2  0.613E+00 9500000.00    -4.000         4
         1       120         2  0.613E+00 9500000.00    -4.000         4
         1       121         2  0.613E+00 9500000.00    -4.000         4
         1       122         2  0.613E+00 9500000.00    -4.000         4
         1       123         2  0.613E+00 9500000.00    -4.000         4
         1       124         2  0.613E+00 9500000.00    -4.000         4
         1       125         2  0.613E+00 9500000.00    -4.000         4
         1        80        10  0.991E+00 9500000.00    -4.000         5
         1        81         9  0.991E+00 9500000.00    -4.000         5
         1        82         8  0.991E+00 9500000.00    -4.000         5
         1        83         8  0.991E+00 9500000.00    -4.000         5
         1        84         8  0.991E+00 9500000.00    -4.000         5
         1        85         8  0.991E+00 9500000.00    -4.000         5
         1        86         8  0.991E+00 9500000.00    -4.000         5
         1        87         7  0.991E+00 9500000.00    -4.000         5
         1        88         6  0.991E+00 9500000.00    -4.000         5
         1        89         5  0.991E+00 9500000.00    -4.000         5
         1        90         4  0.991E+00 9500000.00    -4.000         5
         1        91         3  0.991E+00 9500000.00    -4.000         5
         1        92         2  0.991E+00 9500000.00    -4.000         5
         1        93         1  0.991E+00 9500000.00    -4.000         5
         1        94         1  0.991E+00 9500000.00    -4.000         5
         1        95         1  0.991E+00 9500000.00    -4.000         5
         1        96         1  0.991E+00 9500000.00    -4.000         5
         1        97         1  0.991E+00 9500000.00    -4.000         5
         1        98         1  0.991E+00 9500000.00    -4.000         5
         1        99         1  0.991E+00 9500000.00    -4.000         5
         1       100         1  0.991E+00 9500000.00    -4.000         5
         1       101         1  0.991E+00 9500000.00    -4.000         5
         1       102         1  0.991E+00 9500000.00    -4.000         5
         1       103         1  0.991E+00 9500000.00    -4.000         5
         1       104         1  0.991E+00 9500000.00    -4.000         5
         1       105         1  0.991E+00 9500000.00    -4.000         5
         1       106         1  0.991E+00 9500000.00    -4.000         5
         1       107         1  0.991E+00 9500000.00    -4.000         5
         1       108         1  0.991E+00 9500000.00    -4.000         5
         1        69        14  0.113E+01 9500000.00    -4.000         6
         1        70        14  0.113E+01 9500000.00    -4.000         6
         1        71        14  0.113E+01 9500000.00    -4.000         6
         1        72        14  0.113E+01 9500000.00    -4.000         6
         1        73        14  0.113E+01 9500000.00    -4.000         6
         1        74        14  0.113E+01 9500000.00    -4.000         6
         1        75        14  0.113E+01 9500000.00    -4.000         6
         1        76        14  0.113E+01 9500000.00    -4.000         6
         1        77        13  0.113E+01 9500000.00    -4.000         6
         1        78        12  0.113E+01 9500000.00    -4.000         6
         1        79        11  0.113E+01 9500000.00    -4.000         6
         1        56        14  0.131E+01 150000.000    -4.600         7
         1        57        14  0.131E+01 150000.000    -4.600         7
         1        58        14  0.131E+01 150000.000    -4.600         7
         1        59        14  0.131E+01 150000.000    -4.600         7
         1        60        14  0.131E+01 150000.000    -4.600         7
         1        61        14  0.131E+01 150000.000    -4.600         7
         1        62        14  0.131E+01 150000.000    -4.600         7
         1        63        14  0.131E+01 150000.000    -4.600         7
         1        64        14  0.131E+01 150000.000    -4.600         7
         1        65        14  0.131E+01 150000.000    -4.600         7
         1        66        14  0.131E+01 150000.000    -4.600         7
         1        67        14  0.131E+01 150000.000    -4.600         7
         1        68        14  0.131E+01 150000.000    -4.600         7
         1        46        14  0.131E+01 150000.000    -4.600         8
         1        47        14  0.131E+01 150000.000    -4.600         8
         1        48        14  0.131E+01 150000.000    -4.600         8
         1        49        14  0.131E+01 150000.000    -4.600         8
         1        50        14  0.131E+01 150000.000    -4.600         8
         1        51        14  0.131E+01 150000.000    -4.600         8
         1        52        14  0.131E+01 150000.000    -4.600         8
         1        53        14  0.131E+01 150000.000    -4.600         8
         1        54        14  0.131E+01 150000.000    -4.600         8
         1        55        14  0.131E+01 150000.000    -4.600         8
         1        43        16  0.131E+01 150000.000    -2.900         9
         1        44        15  0.131E+01 150000.000    -2.900         9
         1        45        14  0.131E+01 150000.000    -2.900         9
         1         7        24  0.159E+01 150000.000    -2.900        10
         1         8        23  0.159E+01 150000.000    -2.900        10
         1         9        22  0.159E+01 150000.000    -2.900        10
         1        10        22  0.159E+01 150000.000    -2.900        10
         1        11        21  0.159E+01 150000.000    -2.900        10
         1        12        20  0.159E+01 150000.000    -2.900        10
         1        13        19  0.159E+01 150000.000    -2.900        10
         1        14        18  0.159E+01 150000.000    -2.900        10
         1        15        18  0.159E+01 150000.000    -2.900        10
         1        16        17  0.159E+01 150000.000    -2.900        10
         1        17        16  0.159E+01 150000.000    -2.900        10
         1        18        16  0.159E+01 150000.000    -2.900        10
         1        19        16  0.159E+01 150000.000    -2.900        10
         1        20        16  0.159E+01 150000.000    -2.900        10
         1        21        16  0.159E+01 150000.000    -2.900        10
         1        22        16  0.159E+01 150000.000    -2.900        10
         1        23        16  0.159E+01 150000.000    -2.900        10
         1        24        16  0.159E+01 150000.000    -2.900        10
         1        25        16  0.159E+01 150000.000    -2.900        10
         1        26        16  0.159E+01 150000.000    -2.900        10
         1        27        16  0.159E+01 150000.000    -2.900        10
         1        28        16  0.159E+01 150000.000    -2.900        10
         1        29        16  0.159E+01 150000.000    -2.900        10
         1        30        16  0.159E+01 150000.000    -2.900        10
         1        31        16  0.159E+01 150000.000    -2.900        10
         1        32        16  0.159E+01 150000.000    -2.900        10
         1        33        16  0.159E+01 150000.000    -2.900        10
         1        34        16  0.159E+01 150000.000    -2.900        10
         1        35        16  0.159E+01 150000.000    -2.900        10
         1        36        17  0.159E+01 150000.000    -2.900        10
         1        37        17  0.159E+01 150000.000    -2.900        10
         1        38        17  0.159E+01 150000.000    -2.900        10
         1        39        17  0.159E+01 150000.000    -2.900        10
         1        40        17  0.159E+01 150000.000    -2.900        10
         1        41        17  0.159E+01 150000.000    -2.900        10
         1        42        17  0.159E+01 150000.000    -2.900        10
         1         3        25  0.150E+01 150000.000    -4.000        11
         1         3        26  0.150E+01 150000.000    -4.000        11
         1         4        25  0.150E+01 150000.000    -4.000        11
         1         5        25  0.150E+01 150000.000    -4.000        11
         1         6        25  0.150E+01 150000.000    -4.000        11
         1         1        54  0.319E+00 2500000.00    -4.000        12
         1         1        55  0.318E+00 2500000.00    -4.000        12
         1         1        56  0.316E+00 2500000.00    -4.000        12
         1         1        57  0.315E+00 2500000.00    -4.000        12
         1         1        58  0.313E+00 2500000.00    -4.000        12
         1         1        59  0.312E+00 2500000.00    -4.000        12
         1         1        60  0.310E+00 2500000.00    -4.000        12
         1         1        61  0.309E+00 2500000.00    -4.000        12
         1         1        62  0.307E+00 2500000.00    -4.000        12
         1         1        63  0.306E+00 2500000.00    -4.000        12
         1         2        38  0.342E+00 2500000.00    -4.000        12
         1         2        39  0.340E+00 2500000.00    -4.000        12
         1         2        40  0.339E+00 2500000.00    -4.000        12
         1         2        41  0.337E+00 2500000.00    -4.000        12
         1         2        42  0.336E+00 2500000.00    -4.000        12
         1         2        43  0.334E+00 2500000.00    -4.000        12
         1         2        44  0.333E+00 2500000.00    -4.000        12
         1         2        45  0.331E+00 2500000.00    -4.000        12
         1         2        46  0.330E+00 2500000.00    -4.000        12
         1         2        47  0.328E+00 2500000.00    -4.000        12
         1         2        48  0.327E+00 2500000.00    -4.000        12
         1         2        49  0.325E+00 2500000.00    -4.000        12
         1         2        50  0.324E+00 2500000.00    -4.000        12
         1         2        51  0.322E+00 2500000.00    -4.000        12
         1         2        52  0.321E+00 2500000.00    -4.000        12
         1         2        53  0.319E+00 2500000.00    -4.000        12
         1         2        64  0.303E+00 2500000.00    -4.000        12
         1         2        65  0.301E+00 2500000.00    -4.000        12
         1         2        66  0.300E+00 2500000.00    -4.000        12
         1         2        67  0.298E+00 2500000.00    -4.000        12
         1         2        68  0.297E+00 2500000.00    -4.000        12
         1         2        69  0.295E+00 2500000.00    -4.000        12
         1         2        70  0.294E+00 2500000.00    -4.000        12
         1         2        71  0.292E+00 2500000.00    -4.000        12
         1         2        72  0.291E+00 2500000.00    -4.000        12
         1         2        73  0.289E+00 2500000.00    -4.000        12
         1         3        27  0.357E+00 2500000.00    -4.000        12
         1         3        28  0.355E+00 2500000.00    -4.000        12
         1         3        29  0.354E+00 2500000.00    -4.000        12
         1         3        30  0.352E+00 2500000.00    -4.000        12
         1         3        31  0.351E+00 2500000.00    -4.000        12
         1         3        32  0.349E+00 2500000.00    -4.000        12
         1         3        33  0.348E+00 2500000.00    -4.000        12
         1         3        34  0.346E+00 2500000.00    -4.000        12
         1         3        35  0.345E+00 2500000.00    -4.000        12
         1         3        36  0.343E+00 2500000.00    -4.000        12
         1         3        37  0.342E+00 2500000.00    -4.000        12
         1         3        74  0.286E+00 2500000.00    -4.000        12
         1         5        77  0.283E+00 2500000.00    -4.000        12
         1         6        78  0.280E+00 2500000.00    -4.000        12
         1         8        79  0.279E+00 2500000.00    -4.000        12
         1         9        80  0.277E+00 2500000.00    -4.000        12
         1         9        81  0.276E+00 2500000.00    -4.000        12
         1         9        82  0.274E+00 2500000.00    -4.000        12
         1         4        75  0.271E+00 2500000.00    -4.000        12
         1         5        76  0.268E+00 2500000.00    -4.000        12
         1         6        77  0.267E+00 2500000.00    -4.000        12
         1         7        78  0.265E+00 2500000.00    -4.000        12
         1         9        83 -0.149E+00 150000.000    -4.000        13
         1        15        81 -0.171E+00 150000.000    -4.000        14
         1        22        78 -0.171E+00 150000.000    -5.200        15
         1        21        77  0.128E+00 90000000.0    -5.200        16
         1        10        48  0.128E+00 90000000.0    -5.200        16
         1        10        49  0.128E+00 90000000.0    -5.200        16
         1        10        50  0.128E+00 90000000.0    -5.200        16
         1        10        51  0.128E+00 90000000.0    -5.200        16
         1        10        52  0.128E+00 90000000.0    -5.200        16
         1        10        53  0.128E+00 90000000.0    -5.200        16
         1        11        53  0.128E+00 90000000.0    -5.200        16
         1        12        53  0.128E+00 90000000.0    -5.200        16
         1        12        54  0.128E+00 90000000.0    -5.200        16
         1        12        55  0.128E+00 90000000.0    -5.200        16
         1        12        56  0.128E+00 90000000.0    -5.200        16
         1        12        57  0.128E+00 90000000.0    -5.200        16
         1        12        58  0.128E+00 90000000.0    -5.200        16
         1        12        72  0.128E+00 90000000.0    -5.200        16
         1        13        73  0.128E+00 90000000.0    -5.200        16
         1        14        74  0.128E+00 90000000.0    -5.200        16
         1        15        74  0.128E+00 90000000.0    -5.200        16
         1        16        74  0.128E+00 90000000.0    -5.200        16
         1        17        74  0.128E+00 90000000.0    -5.200        16
         1        18        75  0.128E+00 90000000.0    -5.200        16
         1        19        75  0.128E+00 90000000.0    -5.200        16
         1        20        76  0.128E+00 90000000.0    -5.200        16
         1        12        59  0.128E+00 90000000.0    -5.200        16
         1        12        60  0.128E+00 90000000.0    -5.200        16
         1        12        61  0.128E+00 90000000.0    -5.200        16
         1        12        62  0.128E+00 90000000.0    -5.200        16
         1        12        63  0.128E+00 90000000.0    -5.200        16
         1        12        64  0.128E+00 90000000.0    -5.200        16
         1        12        65  0.128E+00 90000000.0    -5.200        16
         1        12        66  0.128E+00 90000000.0    -5.200        16
         1        12        67  0.128E+00 90000000.0    -5.200        16
         1        12        68  0.128E+00 90000000.0    -5.200        16
         1        12        69  0.128E+00 90000000.0    -5.200        16
         1        12        70  0.128E+00 90000000.0    -5.200        16
         1        12        71  0.128E+00 90000000.0    -5.200        16
         1        26        75 -0.158E+00 150000.000    -4.000        17
         1        27        76 -0.158E+00 150000.000    -4.000        17
         1        22        46  0.177E+00 31500000.0    -4.000        18
         1        22        47  0.171E+00 31500000.0    -4.000        18
         1        22        48  0.166E+00 31500000.0    -4.000        18
         1        22        49  0.160E+00 31500000.0    -4.000        18
         1        22        50  0.155E+00 31500000.0    -4.000        18
         1        22        51  0.149E+00 31500000.0    -4.000        18
         1        22        52  0.144E+00 31500000.0    -4.000        18
         1        22        53  0.138E+00 31500000.0    -4.000        18
         1        22        54  0.133E+00 31500000.0    -4.000        18
         1        22        67  0.127E+00 31500000.0    -4.000        18
         1        23        68  0.122E+00 31500000.0    -4.000        18
         1        24        68  0.116E+00 31500000.0    -4.000        18
         1        25        69  0.110E+00 31500000.0    -4.000        18
         1        25        70  0.105E+00 31500000.0    -4.000        18
         1        25        71  0.994E-01 31500000.0    -4.000        18
         1        25        72  0.939E-01 31500000.0    -4.000        18
         1        25        73  0.884E-01 31500000.0    -4.000        18
         1        25        74  0.829E-01 31500000.0    -4.000        18
         1        25        75  0.773E-01 31500000.0    -4.000        18
         1        22        55  0.773E-01 31500000.0    -4.000        18
         1        22        56  0.773E-01 31500000.0    -4.000        18
         1        22        57  0.773E-01 31500000.0    -4.000        18
         1        22        58  0.773E-01 31500000.0    -4.000        18
         1        22        59  0.773E-01 31500000.0    -4.000        18
         1        22        60  0.773E-01 31500000.0    -4.000        18
         1        22        61  0.773E-01 31500000.0    -4.000        18
         1        22        62  0.773E-01 31500000.0    -4.000        18
         1        22        63  0.773E-01 31500000.0    -4.000        18
         1        22        64  0.773E-01 31500000.0    -4.000        18
         1        22        65  0.773E-01 31500000.0    -4.000        18
         1        22        66  0.773E-01 31500000.0    -4.000        18
         1         7        26  0.826E+00 1500000.00    -2.400        20
         1         8        27  0.793E+00 1500000.00    -2.400        20
         1         9        28  0.760E+00 1500000.00    -2.400        20
         1        10        29  0.728E+00 1500000.00    -2.400        20
         1        10        30  0.711E+00 1500000.00    -2.400        20
         1        11        31  0.678E+00 1500000.00    -2.400        20
         1        12        32  0.646E+00 1500000.00    -2.400        20
         1        13        33  0.613E+00 1500000.00    -2.400        20
         1        14        34  0.580E+00 1500000.00    -2.400        20
         1        14        35  0.564E+00 1500000.00    -2.400        20
         1        15        36  0.531E+00 1500000.00    -2.400        20
         1        16        37  0.498E+00 1500000.00    -2.400        20
         1        17        38  0.465E+00 1500000.00    -2.400        20
         1        18        39  0.432E+00 1500000.00    -2.400        20
         1        18        40  0.416E+00 1500000.00    -2.400        20
         1        19        41  0.383E+00 1500000.00    -2.400        20
         1        20        42  0.350E+00 1500000.00    -2.400        20
         1        21        43  0.317E+00 1500000.00    -2.400        20
         1        22        44  0.285E+00 1500000.00    -2.400        20
         1        22        45  0.268E+00 1500000.00    -2.400        20
         1        23        45  0.264E+00 1500000.00    -2.400        20
         1        23        46  0.261E+00 1500000.00    -2.400        20
         1        24        47  0.253E+00 1500000.00    -2.400        20
         1        25        48  0.246E+00 1500000.00    -2.400        20
         1        26        49  0.238E+00 1500000.00    -2.400        20
         1        27        50  0.231E+00 1500000.00    -2.400        20
         1        27        51  0.227E+00 1500000.00    -2.400        20
         1        28        52  0.219E+00 1500000.00    -2.400        20
         1        29        53  0.212E+00 1500000.00    -2.400        20
         1        30        54  0.204E+00 1500000.00    -2.400        20
         1        31        55  0.197E+00 1500000.00    -2.400        20
         1        31        56  0.193E+00 1500000.00    -2.400        20
         1        32        57  0.186E+00 1500000.00    -2.400        20
         1        33        58  0.178E+00 1500000.00    -2.400        20
         1        34        59  0.170E+00 1500000.00    -2.400        20
         1        35        60  0.163E+00 1500000.00    -2.400        20
         1        36        61  0.155E+00 1500000.00    -2.400        20
         1        46        15  0.123E+01 150000.000    -3.400        21
         1        46        16  0.123E+01 150000.000    -3.400        21
         1        46        17  0.123E+01 150000.000    -3.400        21
         1        39        60  0.114E+01 83200000.0    -3.400        22
         1        40        59  0.113E+01 83200000.0    -3.400        22
         1        46        18  0.111E+01 83200000.0    -3.400        22
         1        46        19  0.109E+01 83200000.0    -3.400        22
         1        46        20  0.107E+01 83200000.0    -3.400        22
         1        46        21  0.106E+01 83200000.0    -3.400        22
         1        46        22  0.104E+01 83200000.0    -3.400        22
         1        46        23  0.102E+01 83200000.0    -3.400        22
         1        46        24  0.100E+01 83200000.0    -3.400        22
         1        46        25  0.986E+00 83200000.0    -3.400        22
         1        46        26  0.968E+00 83200000.0    -3.400        22
         1        46        27  0.951E+00 83200000.0    -3.400        22
         1        46        28  0.933E+00 83200000.0    -3.400        22
         1        46        29  0.916E+00 83200000.0    -3.400        22
         1        46        30  0.898E+00 83200000.0    -3.400        22
         1        46        31  0.881E+00 83200000.0    -3.400        22
         1        46        32  0.863E+00 83200000.0    -3.400        22
         1        46        33  0.846E+00 83200000.0    -3.400        22
         1        46        34  0.828E+00 83200000.0    -3.400        22
         1        46        35  0.811E+00 83200000.0    -3.400        22
         1        46        36  0.793E+00 83200000.0    -3.400        22
         1        46        37  0.776E+00 83200000.0    -3.400        22
         1        46        38  0.758E+00 83200000.0    -3.400        22
         1        46        39  0.741E+00 83200000.0    -3.400        22
         1        46        40  0.723E+00 83200000.0    -3.400        22
         1        46        41  0.706E+00 83200000.0    -3.400        22
         1        46        42  0.688E+00 83200000.0    -3.400        22
         1        46        43  0.671E+00 83200000.0    -3.400        22
         1        46        44  0.653E+00 83200000.0    -3.400        22
         1        46        45  0.636E+00 83200000.0    -3.400        22
         1        46        46  0.618E+00 83200000.0    -3.400        22
         1        46        47  0.601E+00 83200000.0    -3.400        22
         1        46        48  0.583E+00 83200000.0    -3.400        22
         1        46        49  0.566E+00 83200000.0    -3.400        22
         1        47        49  0.531E+00 83200000.0    -3.400        22
         1        48        49  0.513E+00 83200000.0    -3.400        22
         1        49        50  0.496E+00 83200000.0    -3.400        22
         1        50        50  0.461E+00 83200000.0    -3.400        22
         1        50        51  0.443E+00 83200000.0    -3.400        22
         1        51        52  0.426E+00 83200000.0    -3.400        22
         1        51        53  0.408E+00 83200000.0    -3.400        22
         1        51        54  0.338E+00 83200000.0    -3.400        22
         1        51        55  0.361E+00 83200000.0    -3.400        22
         1        45        50  0.407E+00 83200000.0    -3.400        22
         1        44        51  0.384E+00 83200000.0    -3.400        22
         1        44        52  0.361E+00 83200000.0    -3.400        22
         1        43        53  0.384E+00 83200000.0    -3.400        22
         1        43        54  0.430E+00 83200000.0    -3.400        22
         1        42        55  0.430E+00 83200000.0    -3.400        22
         1        42        56  0.430E+00 83200000.0    -3.400        22
         1        42        57  0.430E+00 83200000.0    -3.400        22
         1        42        58  0.430E+00 83200000.0    -3.400        22
         1        41        58  0.430E+00 83200000.0    -3.400        22
         1        39        61 -0.117E+00 65000.0000    -3.400        23
         1        51        56 -0.183E+00 65000.0000    -1.500        24
         1        47        36  0.870E+00 58500000.0    -3.400        25
         1        48        36  0.856E+00 58500000.0    -3.400        25
         1        49        36  0.841E+00 58500000.0    -3.400        25
         1        57        37  0.813E+00 58500000.0    -3.400        25
         1        58        38  0.798E+00 58500000.0    -3.400        25
         1        58        39  0.784E+00 58500000.0    -3.400        25
         1        59        40  0.770E+00 58500000.0    -3.400        25
         1        60        41  0.755E+00 58500000.0    -3.400        25
         1        60        42  0.741E+00 58500000.0    -3.400        25
         1        61        43  0.727E+00 58500000.0    -3.400        25
         1        61        44  0.712E+00 58500000.0    -3.400        25
         1        61        45  0.684E+00 58500000.0    -3.400        25
         1        61        46  0.669E+00 58500000.0    -3.400        25